Material: amorphous / HAC / Smith-Ta650C
Optical constants. F. W. Smith. Optical constants of a hydrogenated amorphous carbon film, J. Appl. Phys. 55, 764 (1984)
Comments: Annealed (Ta = 650 Â°C)
Specs: {"wavelength_vacuum": true, "substrate": "fused_quartz"}
wavelength (um)	n	k
0.261	1.38	0.697
0.276	1.45	0.714
0.292	1.52	0.721
0.310	1.57	0.736
0.331	1.64	0.734
0.354	1.70	0.730
0.381	1.78	0.721
0.413	1.85	0.702
0.451	1.90	0.685
0.496	1.94	0.667
0.551	1.95	0.686
0.620	2.06	0.662
0.708	2.18	0.628
0.827	2.28	0.588
