Material: amorphous / HAC / Smith-Td250C
Optical constants. F. W. Smith. Optical constants of a hydrogenated amorphous carbon film, J. Appl. Phys. 55, 764 (1984)
Comments: As-deposited (Td = 250 Â°C)
Specs: {"wavelength_vacuum": true, "substrate": "fused_quartz"}
wavelength (um)	n	k
0.261	1.74	0.246
0.276	1.75	0.220
0.292	1.76	0.195
0.310	1.77	0.168
0.331	1.77	0.144
0.354	1.77	0.119
0.381	1.76	0.089
0.413	1.76	0.061
0.451	1.75	0.041
0.496	1.75	0.026
0.551	1.74	0.0120
0.620	1.74	0.0065
0.708	1.74	0.0057
0.827	1.74	0.0030
