Material: mixed crystals / ZnO-CdO / Aguilar-25
Optical constants. O. Aguilar, S. de Castro, M. P. F. Godoy, M. R. S. Dias. Optoelectronic characterization of Zn1-xCdxO thin films as an alternative to photonic crystals in organic solar cells, Opt. Mater. Express 9, 3638-3648 (2019) (Numerical data kindly provided by Mariama Rebello de Sousa Dias)
Comments: Zn0.25Cd0.75O (25% ZnO, 75% CdO) thin film.
wavelength (um)	n	k
0.300	1.4120E+00	4.4255E-01
0.310	1.4587E+00	4.7625E-01
0.320	1.5061E+00	4.9868E-01
0.330	1.5513E+00	5.1137E-01
0.340	1.5921E+00	5.1638E-01
0.350	1.6269E+00	5.1617E-01
0.360	1.6549E+00	5.1367E-01
0.370	1.6765E+00	5.1215E-01
0.380	1.6937E+00	5.1464E-01
0.390	1.7097E+00	5.2310E-01
0.400	1.7290E+00	5.3744E-01
0.410	1.7551E+00	5.5523E-01
0.420	1.7902E+00	5.7230E-01
0.430	1.8335E+00	5.8414E-01
0.440	1.8825E+00	5.8725E-01
0.450	1.9336E+00	5.7987E-01
0.460	1.9829E+00	5.6205E-01
0.470	2.0274E+00	5.3519E-01
0.480	2.0651E+00	5.0146E-01
0.490	2.0949E+00	4.6330E-01
0.500	2.1166E+00	4.2303E-01
0.510	2.1308E+00	3.8263E-01
0.520	2.1381E+00	3.4363E-01
0.530	2.1399E+00	3.0711E-01
0.540	2.1371E+00	2.7373E-01
0.550	2.1310E+00	2.4380E-01
0.560	2.1224E+00	2.1737E-01
0.570	2.1122E+00	1.9429E-01
0.580	2.1010E+00	1.7433E-01
0.590	2.0894E+00	1.5714E-01
0.600	2.0776E+00	1.4240E-01
0.610	2.0660E+00	1.2978E-01
0.620	2.0547E+00	1.1896E-01
0.630	2.0437E+00	1.0967E-01
0.640	2.0332E+00	1.0168E-01
0.650	2.0232E+00	9.4801E-02
0.660	2.0135E+00	8.8869E-02
0.670	2.0043E+00	8.3759E-02
0.680	1.9955E+00	7.9372E-02
0.690	1.9870E+00	7.5632E-02
0.700	1.9789E+00	7.2478E-02
0.710	1.9711E+00	6.9863E-02
0.720	1.9636E+00	6.7746E-02
0.730	1.9564E+00	6.6095E-02
0.740	1.9495E+00	6.4879E-02
0.750	1.9430E+00	6.4067E-02
0.760	1.9367E+00	6.3629E-02
0.770	1.9308E+00	6.3533E-02
0.780	1.9253E+00	6.3744E-02
0.790	1.9201E+00	6.4226E-02
0.800	1.9152E+00	6.4942E-02
0.810	1.9107E+00	6.5851E-02
0.820	1.9066E+00	6.6914E-02
0.830	1.9028E+00	6.8091E-02
0.840	1.8994E+00	6.9345E-02
0.850	1.8963E+00	7.0637E-02
0.860	1.8935E+00	7.1933E-02
0.870	1.8910E+00	7.3203E-02
0.880	1.8887E+00	7.4417E-02
0.890	1.8867E+00	7.5551E-02
0.900	1.8850E+00	7.6585E-02
0.910	1.8834E+00	7.7502E-02
0.920	1.8820E+00	7.8289E-02
0.930	1.8807E+00	7.8937E-02
0.940	1.8796E+00	7.9440E-02
0.950	1.8785E+00	7.9796E-02
0.960	1.8775E+00	8.0005E-02
0.970	1.8765E+00	8.0070E-02
0.980	1.8755E+00	7.9995E-02
0.990	1.8746E+00	7.9788E-02
1.000	1.8736E+00	7.9456E-02
1.010	1.8726E+00	7.9009E-02
1.020	1.8715E+00	7.8456E-02
1.030	1.8704E+00	7.7807E-02
1.040	1.8693E+00	7.7075E-02
1.050	1.8680E+00	7.6268E-02
1.060	1.8667E+00	7.5399E-02
1.070	1.8653E+00	7.4477E-02
1.080	1.8638E+00	7.3514E-02
1.090	1.8622E+00	7.2517E-02
1.100	1.8606E+00	7.1497E-02
1.110	1.8588E+00	7.0463E-02
1.120	1.8570E+00	6.9422E-02
1.130	1.8550E+00	6.8382E-02
1.140	1.8530E+00	6.7349E-02
1.150	1.8509E+00	6.6330E-02
1.160	1.8487E+00	6.5331E-02
1.170	1.8465E+00	6.4356E-02
1.180	1.8441E+00	6.3409E-02
1.190	1.8417E+00	6.2495E-02
1.200	1.8393E+00	6.1618E-02
1.210	1.8367E+00	6.0779E-02
1.220	1.8341E+00	5.9981E-02
1.230	1.8315E+00	5.9227E-02
1.240	1.8288E+00	5.8518E-02
1.250	1.8260E+00	5.7856E-02
1.260	1.8232E+00	5.7241E-02
1.270	1.8203E+00	5.6675E-02
1.280	1.8174E+00	5.6157E-02
1.290	1.8145E+00	5.5689E-02
1.300	1.8115E+00	5.5270E-02
1.310	1.8085E+00	5.4900E-02
1.320	1.8054E+00	5.4579E-02
1.330	1.8024E+00	5.4306E-02
1.340	1.7992E+00	5.4082E-02
1.350	1.7961E+00	5.3906E-02
1.360	1.7930E+00	5.3776E-02
1.370	1.7898E+00	5.3693E-02
1.380	1.7866E+00	5.3656E-02
1.390	1.7834E+00	5.3663E-02
1.400	1.7801E+00	5.3714E-02
1.410	1.7769E+00	5.3809E-02
1.420	1.7736E+00	5.3946E-02
1.430	1.7703E+00	5.4124E-02
1.440	1.7670E+00	5.4343E-02
1.450	1.7637E+00	5.4602E-02
1.460	1.7603E+00	5.4900E-02
1.470	1.7570E+00	5.5236E-02
1.480	1.7536E+00	5.5609E-02
1.490	1.7502E+00	5.6019E-02
1.500	1.7469E+00	5.6464E-02
1.510	1.7435E+00	5.6945E-02
1.520	1.7401E+00	5.7460E-02
1.530	1.7366E+00	5.8009E-02
1.540	1.7332E+00	5.8591E-02
1.550	1.7298E+00	5.9205E-02
1.560	1.7263E+00	5.9852E-02
1.570	1.7229E+00	6.0529E-02
1.580	1.7194E+00	6.1237E-02
1.590	1.7159E+00	6.1975E-02
1.600	1.7124E+00	6.2743E-02
1.610	1.7089E+00	6.3540E-02
1.620	1.7054E+00	6.4366E-02
1.630	1.7019E+00	6.5220E-02
1.640	1.6984E+00	6.6103E-02
1.650	1.6948E+00	6.7013E-02
1.660	1.6913E+00	6.7950E-02
1.670	1.6877E+00	6.8915E-02
1.680	1.6842E+00	6.9906E-02
1.690	1.6806E+00	7.0923E-02
1.700	1.6770E+00	7.1967E-02
1.710	1.6734E+00	7.3037E-02
1.720	1.6698E+00	7.4133E-02
1.730	1.6662E+00	7.5255E-02
1.740	1.6625E+00	7.6402E-02
1.750	1.6589E+00	7.7574E-02
1.760	1.6552E+00	7.8772E-02
1.770	1.6515E+00	7.9995E-02
1.780	1.6479E+00	8.1244E-02
1.790	1.6442E+00	8.2517E-02
1.800	1.6405E+00	8.3815E-02
1.810	1.6367E+00	8.5138E-02
1.820	1.6330E+00	8.6487E-02
1.830	1.6293E+00	8.7860E-02
1.840	1.6255E+00	8.9258E-02
1.850	1.6217E+00	9.0681E-02
1.860	1.6180E+00	9.2129E-02
1.870	1.6142E+00	9.3603E-02
1.880	1.6104E+00	9.5101E-02
1.890	1.6065E+00	9.6625E-02
1.900	1.6027E+00	9.8174E-02
1.910	1.5989E+00	9.9749E-02
1.920	1.5950E+00	1.0135E-01
1.930	1.5911E+00	1.0297E-01
1.940	1.5872E+00	1.0463E-01
1.950	1.5833E+00	1.0630E-01
1.960	1.5794E+00	1.0801E-01
1.970	1.5755E+00	1.0974E-01
1.980	1.5716E+00	1.1149E-01
1.990	1.5676E+00	1.1327E-01
2.000	1.5636E+00	1.1508E-01
2.010	1.5596E+00	1.1692E-01
2.020	1.5556E+00	1.1878E-01
2.030	1.5516E+00	1.2067E-01
2.040	1.5476E+00	1.2259E-01
2.050	1.5435E+00	1.2454E-01
2.060	1.5395E+00	1.2651E-01
2.070	1.5354E+00	1.2851E-01
2.080	1.5313E+00	1.3054E-01
2.090	1.5272E+00	1.3260E-01
2.100	1.5231E+00	1.3469E-01
2.110	1.5190E+00	1.3681E-01
2.120	1.5148E+00	1.3896E-01
2.130	1.5107E+00	1.4113E-01
2.140	1.5065E+00	1.4334E-01
2.150	1.5023E+00	1.4558E-01
2.160	1.4981E+00	1.4785E-01
2.170	1.4939E+00	1.5015E-01
2.180	1.4896E+00	1.5248E-01
2.190	1.4854E+00	1.5484E-01
2.200	1.4811E+00	1.5723E-01
2.210	1.4769E+00	1.5966E-01
2.220	1.4726E+00	1.6212E-01
2.230	1.4683E+00	1.6461E-01
2.240	1.4639E+00	1.6713E-01
2.250	1.4596E+00	1.6969E-01
2.260	1.4553E+00	1.7229E-01
2.270	1.4509E+00	1.7491E-01
2.280	1.4465E+00	1.7757E-01
2.290	1.4421E+00	1.8027E-01
2.300	1.4377E+00	1.8300E-01
2.310	1.4333E+00	1.8577E-01
2.320	1.4289E+00	1.8858E-01
2.330	1.4244E+00	1.9142E-01
2.340	1.4200E+00	1.9430E-01
2.350	1.4155E+00	1.9721E-01
2.360	1.4110E+00	2.0017E-01
2.370	1.4065E+00	2.0316E-01
2.380	1.4020E+00	2.0619E-01
2.390	1.3975E+00	2.0926E-01
2.400	1.3930E+00	2.1237E-01
2.410	1.3885E+00	2.1552E-01
2.420	1.3839E+00	2.1872E-01
2.430	1.3793E+00	2.2195E-01
2.440	1.3748E+00	2.2522E-01
2.450	1.3702E+00	2.2854E-01
2.460	1.3656E+00	2.3189E-01
2.470	1.3610E+00	2.3529E-01
2.480	1.3564E+00	2.3874E-01
2.490	1.3518E+00	2.4222E-01
2.500	1.3471E+00	2.4576E-01
2.510	1.3425E+00	2.4933E-01
2.520	1.3378E+00	2.5295E-01
2.530	1.3332E+00	2.5662E-01
2.540	1.3285E+00	2.6033E-01
2.550	1.3239E+00	2.6409E-01
2.560	1.3192E+00	2.6790E-01
2.570	1.3145E+00	2.7175E-01
2.580	1.3098E+00	2.7565E-01
2.590	1.3052E+00	2.7960E-01
2.600	1.3005E+00	2.8360E-01
2.610	1.2958E+00	2.8765E-01
2.620	1.2911E+00	2.9175E-01
2.630	1.2864E+00	2.9589E-01
2.640	1.2817E+00	3.0009E-01
2.650	1.2770E+00	3.0434E-01
2.660	1.2723E+00	3.0864E-01
2.670	1.2676E+00	3.1299E-01
2.680	1.2629E+00	3.1740E-01
2.690	1.2582E+00	3.2186E-01
2.700	1.2535E+00	3.2637E-01
2.710	1.2488E+00	3.3093E-01
2.720	1.2441E+00	3.3555E-01
2.730	1.2394E+00	3.4022E-01
2.740	1.2347E+00	3.4494E-01
2.750	1.2301E+00	3.4973E-01
2.760	1.2254E+00	3.5456E-01
2.770	1.2208E+00	3.5945E-01
2.780	1.2161E+00	3.6440E-01
2.790	1.2115E+00	3.6940E-01
2.800	1.2069E+00	3.7446E-01
2.810	1.2023E+00	3.7957E-01
2.820	1.1977E+00	3.8475E-01
2.830	1.1931E+00	3.8997E-01
2.840	1.1885E+00	3.9526E-01
2.850	1.1840E+00	4.0060E-01
2.860	1.1794E+00	4.0600E-01
2.870	1.1749E+00	4.1145E-01
2.880	1.1704E+00	4.1696E-01
2.890	1.1660E+00	4.2253E-01
2.900	1.1615E+00	4.2816E-01
2.910	1.1571E+00	4.3384E-01
2.920	1.1527E+00	4.3958E-01
2.930	1.1483E+00	4.4537E-01
2.940	1.1439E+00	4.5122E-01
2.950	1.1396E+00	4.5713E-01
2.960	1.1353E+00	4.6309E-01
2.970	1.1311E+00	4.6911E-01
2.980	1.1268E+00	4.7519E-01
2.990	1.1226E+00	4.8131E-01
3.000	1.1184E+00	4.8750E-01
3.010	1.1143E+00	4.9373E-01
3.020	1.1102E+00	5.0002E-01
3.030	1.1062E+00	5.0636E-01
3.040	1.1021E+00	5.1275E-01
3.050	1.0981E+00	5.1920E-01
3.060	1.0942E+00	5.2569E-01
3.070	1.0903E+00	5.3224E-01
3.080	1.0864E+00	5.3883E-01
3.090	1.0826E+00	5.4548E-01
3.100	1.0789E+00	5.5217E-01
3.110	1.0751E+00	5.5890E-01
3.120	1.0714E+00	5.6568E-01
3.130	1.0678E+00	5.7251E-01
3.140	1.0642E+00	5.7938E-01
3.150	1.0607E+00	5.8630E-01
3.160	1.0572E+00	5.9325E-01
3.170	1.0538E+00	6.0025E-01
3.180	1.0504E+00	6.0728E-01
3.190	1.0470E+00	6.1436E-01
3.200	1.0438E+00	6.2147E-01
