Material: mixed crystals / ZnO-CdO / Aguilar-50
Optical constants. O. Aguilar, S. de Castro, M. P. F. Godoy, M. R. S. Dias. Optoelectronic characterization of Zn1-xCdxO thin films as an alternative to photonic crystals in organic solar cells, Opt. Mater. Express 9, 3638-3648 (2019) (Numerical data kindly provided by Mariama Rebello de Sousa Dias)
Comments: Zn0.5Cd0.5O (50% ZnO, 50% CdO) thin film.
wavelength (um)	n	k
0.300	1.8058E+00	1.4317E-01
0.310	1.8143E+00	1.5983E-01
0.320	1.8263E+00	1.7188E-01
0.330	1.8402E+00	1.7926E-01
0.340	1.8546E+00	1.8229E-01
0.350	1.8686E+00	1.8159E-01
0.360	1.8814E+00	1.7784E-01
0.370	1.8926E+00	1.7176E-01
0.380	1.9020E+00	1.6399E-01
0.390	1.9097E+00	1.5511E-01
0.400	1.9156E+00	1.4556E-01
0.410	1.9199E+00	1.3574E-01
0.420	1.9227E+00	1.2591E-01
0.430	1.9243E+00	1.1631E-01
0.440	1.9247E+00	1.0707E-01
0.450	1.9242E+00	9.8296E-02
0.460	1.9230E+00	9.0054E-02
0.470	1.9211E+00	8.2374E-02
0.480	1.9187E+00	7.5267E-02
0.490	1.9159E+00	6.8729E-02
0.500	1.9128E+00	6.2744E-02
0.510	1.9094E+00	5.7293E-02
0.520	1.9058E+00	5.2351E-02
0.530	1.9022E+00	4.7894E-02
0.540	1.8984E+00	4.3898E-02
0.550	1.8945E+00	4.0342E-02
0.560	1.8907E+00	3.7205E-02
0.570	1.8869E+00	3.4466E-02
0.580	1.8831E+00	3.2104E-02
0.590	1.8794E+00	3.0097E-02
0.600	1.8757E+00	2.8423E-02
0.610	1.8723E+00	2.7053E-02
0.620	1.8689E+00	2.5959E-02
0.630	1.8657E+00	2.5109E-02
0.640	1.8628E+00	2.4468E-02
0.650	1.8600E+00	2.4002E-02
0.660	1.8574E+00	2.3675E-02
0.670	1.8549E+00	2.3454E-02
0.680	1.8527E+00	2.3307E-02
0.690	1.8507E+00	2.3205E-02
0.700	1.8488E+00	2.3123E-02
0.710	1.8471E+00	2.3038E-02
0.720	1.8455E+00	2.2936E-02
0.730	1.8440E+00	2.2802E-02
0.740	1.8425E+00	2.2627E-02
0.750	1.8412E+00	2.2408E-02
0.760	1.8399E+00	2.2140E-02
0.770	1.8387E+00	2.1827E-02
0.780	1.8374E+00	2.1469E-02
0.790	1.8362E+00	2.1071E-02
0.800	1.8350E+00	2.0639E-02
0.810	1.8337E+00	2.0179E-02
0.820	1.8325E+00	1.9699E-02
0.830	1.8312E+00	1.9203E-02
0.840	1.8299E+00	1.8700E-02
0.850	1.8285E+00	1.8195E-02
0.860	1.8272E+00	1.7695E-02
0.870	1.8258E+00	1.7203E-02
0.880	1.8244E+00	1.6726E-02
0.890	1.8230E+00	1.6266E-02
0.900	1.8215E+00	1.5827E-02
0.910	1.8200E+00	1.5412E-02
0.920	1.8185E+00	1.5023E-02
0.930	1.8170E+00	1.4662E-02
0.940	1.8154E+00	1.4330E-02
0.950	1.8139E+00	1.4027E-02
0.960	1.8123E+00	1.3754E-02
0.970	1.8108E+00	1.3511E-02
0.980	1.8092E+00	1.3298E-02
0.990	1.8076E+00	1.3115E-02
1.000	1.8060E+00	1.2960E-02
1.010	1.8044E+00	1.2834E-02
1.020	1.8028E+00	1.2734E-02
1.030	1.8012E+00	1.2662E-02
1.040	1.7996E+00	1.2614E-02
1.050	1.7980E+00	1.2592E-02
1.060	1.7964E+00	1.2592E-02
1.070	1.7948E+00	1.2616E-02
1.080	1.7932E+00	1.2661E-02
1.090	1.7916E+00	1.2726E-02
1.100	1.7900E+00	1.2811E-02
1.110	1.7885E+00	1.2915E-02
1.120	1.7869E+00	1.3037E-02
1.130	1.7853E+00	1.3176E-02
1.140	1.7837E+00	1.3332E-02
1.150	1.7821E+00	1.3503E-02
1.160	1.7806E+00	1.3689E-02
1.170	1.7790E+00	1.3889E-02
1.180	1.7774E+00	1.4103E-02
1.190	1.7758E+00	1.4330E-02
1.200	1.7743E+00	1.4570E-02
1.210	1.7727E+00	1.4822E-02
1.220	1.7711E+00	1.5085E-02
1.230	1.7696E+00	1.5360E-02
1.240	1.7680E+00	1.5646E-02
1.250	1.7664E+00	1.5943E-02
1.260	1.7649E+00	1.6249E-02
1.270	1.7633E+00	1.6566E-02
1.280	1.7617E+00	1.6893E-02
1.290	1.7602E+00	1.7229E-02
1.300	1.7586E+00	1.7575E-02
1.310	1.7570E+00	1.7929E-02
1.320	1.7555E+00	1.8293E-02
1.330	1.7539E+00	1.8665E-02
1.340	1.7523E+00	1.9046E-02
1.350	1.7507E+00	1.9436E-02
1.360	1.7491E+00	1.9834E-02
1.370	1.7476E+00	2.0241E-02
1.380	1.7460E+00	2.0655E-02
1.390	1.7444E+00	2.1078E-02
1.400	1.7428E+00	2.1509E-02
1.410	1.7412E+00	2.1949E-02
1.420	1.7396E+00	2.2396E-02
1.430	1.7380E+00	2.2851E-02
1.440	1.7364E+00	2.3314E-02
1.450	1.7348E+00	2.3785E-02
1.460	1.7331E+00	2.4264E-02
1.470	1.7315E+00	2.4751E-02
1.480	1.7299E+00	2.5246E-02
1.490	1.7283E+00	2.5748E-02
1.500	1.7266E+00	2.6259E-02
1.510	1.7250E+00	2.6778E-02
1.520	1.7233E+00	2.7304E-02
1.530	1.7217E+00	2.7838E-02
1.540	1.7200E+00	2.8381E-02
1.550	1.7183E+00	2.8931E-02
1.560	1.7167E+00	2.9489E-02
1.570	1.7150E+00	3.0056E-02
1.580	1.7133E+00	3.0630E-02
1.590	1.7116E+00	3.1212E-02
1.600	1.7099E+00	3.1803E-02
1.610	1.7082E+00	3.2402E-02
1.620	1.7065E+00	3.3009E-02
1.630	1.7048E+00	3.3624E-02
1.640	1.7031E+00	3.4247E-02
1.650	1.7014E+00	3.4879E-02
1.660	1.6997E+00	3.5519E-02
1.670	1.6979E+00	3.6167E-02
1.680	1.6962E+00	3.6824E-02
1.690	1.6944E+00	3.7489E-02
1.700	1.6927E+00	3.8163E-02
1.710	1.6909E+00	3.8845E-02
1.720	1.6891E+00	3.9536E-02
1.730	1.6874E+00	4.0236E-02
1.740	1.6856E+00	4.0945E-02
1.750	1.6838E+00	4.1662E-02
1.760	1.6820E+00	4.2388E-02
1.770	1.6802E+00	4.3123E-02
1.780	1.6784E+00	4.3866E-02
1.790	1.6766E+00	4.4619E-02
1.800	1.6748E+00	4.5381E-02
1.810	1.6729E+00	4.6152E-02
1.820	1.6711E+00	4.6932E-02
1.830	1.6693E+00	4.7721E-02
1.840	1.6674E+00	4.8520E-02
1.850	1.6656E+00	4.9327E-02
1.860	1.6637E+00	5.0145E-02
1.870	1.6618E+00	5.0971E-02
1.880	1.6600E+00	5.1807E-02
1.890	1.6581E+00	5.2653E-02
1.900	1.6562E+00	5.3508E-02
1.910	1.6543E+00	5.4373E-02
1.920	1.6524E+00	5.5248E-02
1.930	1.6505E+00	5.6132E-02
1.940	1.6486E+00	5.7026E-02
1.950	1.6466E+00	5.7930E-02
1.960	1.6447E+00	5.8844E-02
1.970	1.6428E+00	5.9769E-02
1.980	1.6408E+00	6.0703E-02
1.990	1.6389E+00	6.1647E-02
2.000	1.6369E+00	6.2602E-02
2.010	1.6350E+00	6.3567E-02
2.020	1.6330E+00	6.4542E-02
2.030	1.6310E+00	6.5528E-02
2.040	1.6290E+00	6.6524E-02
2.050	1.6271E+00	6.7530E-02
2.060	1.6251E+00	6.8548E-02
2.070	1.6231E+00	6.9576E-02
2.080	1.6210E+00	7.0614E-02
2.090	1.6190E+00	7.1664E-02
2.100	1.6170E+00	7.2724E-02
2.110	1.6150E+00	7.3795E-02
2.120	1.6129E+00	7.4878E-02
2.130	1.6109E+00	7.5971E-02
2.140	1.6088E+00	7.7076E-02
2.150	1.6068E+00	7.8191E-02
2.160	1.6047E+00	7.9318E-02
2.170	1.6027E+00	8.0457E-02
2.180	1.6006E+00	8.1606E-02
2.190	1.5985E+00	8.2768E-02
2.200	1.5964E+00	8.3940E-02
2.210	1.5943E+00	8.5125E-02
2.220	1.5922E+00	8.6321E-02
2.230	1.5901E+00	8.7529E-02
2.240	1.5880E+00	8.8748E-02
2.250	1.5859E+00	8.9980E-02
2.260	1.5838E+00	9.1223E-02
2.270	1.5816E+00	9.2479E-02
2.280	1.5795E+00	9.3747E-02
2.290	1.5773E+00	9.5027E-02
2.300	1.5752E+00	9.6319E-02
2.310	1.5730E+00	9.7623E-02
2.320	1.5709E+00	9.8940E-02
2.330	1.5687E+00	1.0027E-01
2.340	1.5665E+00	1.0161E-01
2.350	1.5643E+00	1.0297E-01
2.360	1.5622E+00	1.0433E-01
2.370	1.5600E+00	1.0571E-01
2.380	1.5578E+00	1.0711E-01
2.390	1.5556E+00	1.0851E-01
2.400	1.5534E+00	1.0993E-01
2.410	1.5512E+00	1.1136E-01
2.420	1.5489E+00	1.1281E-01
2.430	1.5467E+00	1.1427E-01
2.440	1.5445E+00	1.1574E-01
2.450	1.5422E+00	1.1722E-01
2.460	1.5400E+00	1.1872E-01
2.470	1.5378E+00	1.2023E-01
2.480	1.5355E+00	1.2176E-01
2.490	1.5332E+00	1.2330E-01
2.500	1.5310E+00	1.2485E-01
2.510	1.5287E+00	1.2642E-01
2.520	1.5265E+00	1.2800E-01
2.530	1.5242E+00	1.2959E-01
2.540	1.5219E+00	1.3120E-01
2.550	1.5196E+00	1.3283E-01
2.560	1.5173E+00	1.3446E-01
2.570	1.5150E+00	1.3612E-01
2.580	1.5127E+00	1.3778E-01
2.590	1.5104E+00	1.3946E-01
2.600	1.5081E+00	1.4116E-01
2.610	1.5058E+00	1.4287E-01
2.620	1.5035E+00	1.4459E-01
2.630	1.5012E+00	1.4633E-01
2.640	1.4988E+00	1.4808E-01
2.650	1.4965E+00	1.4985E-01
2.660	1.4942E+00	1.5164E-01
2.670	1.4918E+00	1.5344E-01
2.680	1.4895E+00	1.5525E-01
2.690	1.4872E+00	1.5708E-01
2.700	1.4848E+00	1.5893E-01
2.710	1.4825E+00	1.6079E-01
2.720	1.4801E+00	1.6266E-01
2.730	1.4777E+00	1.6455E-01
2.740	1.4754E+00	1.6646E-01
2.750	1.4730E+00	1.6838E-01
2.760	1.4706E+00	1.7032E-01
2.770	1.4683E+00	1.7228E-01
2.780	1.4659E+00	1.7425E-01
2.790	1.4635E+00	1.7623E-01
2.800	1.4611E+00	1.7824E-01
2.810	1.4588E+00	1.8026E-01
2.820	1.4564E+00	1.8229E-01
2.830	1.4540E+00	1.8434E-01
2.840	1.4516E+00	1.8641E-01
2.850	1.4492E+00	1.8849E-01
2.860	1.4468E+00	1.9060E-01
2.870	1.4444E+00	1.9271E-01
2.880	1.4420E+00	1.9485E-01
2.890	1.4396E+00	1.9700E-01
2.900	1.4372E+00	1.9917E-01
2.910	1.4348E+00	2.0135E-01
2.920	1.4324E+00	2.0355E-01
2.930	1.4300E+00	2.0577E-01
2.940	1.4276E+00	2.0801E-01
2.950	1.4252E+00	2.1026E-01
2.960	1.4228E+00	2.1253E-01
2.970	1.4204E+00	2.1482E-01
2.980	1.4180E+00	2.1713E-01
2.990	1.4155E+00	2.1945E-01
3.000	1.4131E+00	2.2179E-01
3.010	1.4107E+00	2.2415E-01
3.020	1.4083E+00	2.2653E-01
3.030	1.4059E+00	2.2892E-01
3.040	1.4035E+00	2.3133E-01
3.050	1.4011E+00	2.3376E-01
3.060	1.3987E+00	2.3621E-01
3.070	1.3963E+00	2.3868E-01
3.080	1.3938E+00	2.4116E-01
3.090	1.3914E+00	2.4366E-01
3.100	1.3890E+00	2.4618E-01
3.110	1.3866E+00	2.4872E-01
3.120	1.3842E+00	2.5128E-01
3.130	1.3818E+00	2.5385E-01
3.140	1.3794E+00	2.5645E-01
3.150	1.3770E+00	2.5906E-01
3.160	1.3746E+00	2.6169E-01
3.170	1.3722E+00	2.6434E-01
3.180	1.3698E+00	2.6701E-01
3.190	1.3674E+00	2.6969E-01
3.200	1.3650E+00	2.7240E-01
