Material: mixed crystals / ZnO-CdO / Aguilar-10
Optical constants. O. Aguilar, S. de Castro, M. P. F. Godoy, M. R. S. Dias. Optoelectronic characterization of Zn1-xCdxO thin films as an alternative to photonic crystals in organic solar cells, Opt. Mater. Express 9, 3638-3648 (2019) (Numerical data kindly provided by Mariama Rebello de Sousa Dias)
Comments: Zn0.1Cd0.9O (10% ZnO, 90% CdO) thin film.
wavelength (um)	n	k
0.300	1.9779E+00	6.3013E-01
0.310	2.0422E+00	6.4051E-01
0.320	2.1025E+00	6.3809E-01
0.330	2.1571E+00	6.2578E-01
0.340	2.2053E+00	6.0618E-01
0.350	2.2467E+00	5.8145E-01
0.360	2.2817E+00	5.5337E-01
0.370	2.3105E+00	5.2334E-01
0.380	2.3338E+00	4.9243E-01
0.390	2.3522E+00	4.6147E-01
0.400	2.3662E+00	4.3106E-01
0.410	2.3765E+00	4.0162E-01
0.420	2.3836E+00	3.7344E-01
0.430	2.3879E+00	3.4671E-01
0.440	2.3899E+00	3.2153E-01
0.450	2.3899E+00	2.9795E-01
0.460	2.3884E+00	2.7596E-01
0.470	2.3856E+00	2.5552E-01
0.480	2.3818E+00	2.3659E-01
0.490	2.3771E+00	2.1910E-01
0.500	2.3717E+00	2.0296E-01
0.510	2.3659E+00	1.8810E-01
0.520	2.3596E+00	1.7442E-01
0.530	2.3531E+00	1.6185E-01
0.540	2.3463E+00	1.5029E-01
0.550	2.3395E+00	1.3968E-01
0.560	2.3325E+00	1.2994E-01
0.570	2.3256E+00	1.2100E-01
0.580	2.3187E+00	1.1279E-01
0.590	2.3118E+00	1.0525E-01
0.600	2.3050E+00	9.8328E-02
0.610	2.2983E+00	9.1969E-02
0.620	2.2916E+00	8.6125E-02
0.630	2.2851E+00	8.0753E-02
0.640	2.2787E+00	7.5814E-02
0.650	2.2725E+00	7.1270E-02
0.660	2.2663E+00	6.7089E-02
0.670	2.2603E+00	6.3239E-02
0.680	2.2544E+00	5.9693E-02
0.690	2.2487E+00	5.6426E-02
0.700	2.2430E+00	5.3415E-02
0.710	2.2375E+00	5.0639E-02
0.720	2.2321E+00	4.8078E-02
0.730	2.2268E+00	4.5716E-02
0.740	2.2216E+00	4.3536E-02
0.750	2.2165E+00	4.1524E-02
0.760	2.2115E+00	3.9668E-02
0.770	2.2067E+00	3.7954E-02
0.780	2.2019E+00	3.6373E-02
0.790	2.1971E+00	3.4914E-02
0.800	2.1925E+00	3.3569E-02
0.810	2.1879E+00	3.2328E-02
0.820	2.1835E+00	3.1184E-02
0.830	2.1790E+00	3.0131E-02
0.840	2.1747E+00	2.9162E-02
0.850	2.1704E+00	2.8272E-02
0.860	2.1662E+00	2.7454E-02
0.870	2.1620E+00	2.6705E-02
0.880	2.1579E+00	2.6019E-02
0.890	2.1538E+00	2.5393E-02
0.900	2.1497E+00	2.4823E-02
0.910	2.1457E+00	2.4305E-02
0.920	2.1418E+00	2.3837E-02
0.930	2.1379E+00	2.3415E-02
0.940	2.1340E+00	2.3038E-02
0.950	2.1301E+00	2.2701E-02
0.960	2.1263E+00	2.2403E-02
0.970	2.1224E+00	2.2143E-02
0.980	2.1187E+00	2.1917E-02
0.990	2.1149E+00	2.1725E-02
1.000	2.1112E+00	2.1565E-02
1.010	2.1074E+00	2.1435E-02
1.020	2.1037E+00	2.1333E-02
1.030	2.1000E+00	2.1259E-02
1.040	2.0963E+00	2.1212E-02
1.050	2.0926E+00	2.1190E-02
1.060	2.0890E+00	2.1192E-02
1.070	2.0853E+00	2.1217E-02
1.080	2.0816E+00	2.1265E-02
1.090	2.0780E+00	2.1335E-02
1.100	2.0743E+00	2.1425E-02
1.110	2.0707E+00	2.1536E-02
1.120	2.0671E+00	2.1667E-02
1.130	2.0634E+00	2.1817E-02
1.140	2.0598E+00	2.1985E-02
1.150	2.0561E+00	2.2172E-02
1.160	2.0524E+00	2.2376E-02
1.170	2.0488E+00	2.2597E-02
1.180	2.0451E+00	2.2836E-02
1.190	2.0415E+00	2.3091E-02
1.200	2.0378E+00	2.3362E-02
1.210	2.0341E+00	2.3649E-02
1.220	2.0304E+00	2.3952E-02
1.230	2.0267E+00	2.4270E-02
1.240	2.0230E+00	2.4603E-02
1.250	2.0193E+00	2.4952E-02
1.260	2.0155E+00	2.5315E-02
1.270	2.0118E+00	2.5694E-02
1.280	2.0080E+00	2.6086E-02
1.290	2.0042E+00	2.6493E-02
1.300	2.0004E+00	2.6915E-02
1.310	1.9966E+00	2.7351E-02
1.320	1.9928E+00	2.7801E-02
1.330	1.9890E+00	2.8265E-02
1.340	1.9851E+00	2.8743E-02
1.350	1.9813E+00	2.9235E-02
1.360	1.9774E+00	2.9742E-02
1.370	1.9735E+00	3.0262E-02
1.380	1.9695E+00	3.0796E-02
1.390	1.9656E+00	3.1344E-02
1.400	1.9616E+00	3.1907E-02
1.410	1.9576E+00	3.2483E-02
1.420	1.9536E+00	3.3073E-02
1.430	1.9496E+00	3.3677E-02
1.440	1.9456E+00	3.4296E-02
1.450	1.9415E+00	3.4929E-02
1.460	1.9374E+00	3.5575E-02
1.470	1.9333E+00	3.6237E-02
1.480	1.9292E+00	3.6912E-02
1.490	1.9250E+00	3.7603E-02
1.500	1.9208E+00	3.8307E-02
1.510	1.9166E+00	3.9027E-02
1.520	1.9124E+00	3.9761E-02
1.530	1.9082E+00	4.0510E-02
1.540	1.9039E+00	4.1274E-02
1.550	1.8996E+00	4.2053E-02
1.560	1.8953E+00	4.2847E-02
1.570	1.8909E+00	4.3657E-02
1.580	1.8865E+00	4.4482E-02
1.590	1.8821E+00	4.5323E-02
1.600	1.8777E+00	4.6180E-02
1.610	1.8732E+00	4.7052E-02
1.620	1.8687E+00	4.7941E-02
1.630	1.8642E+00	4.8846E-02
1.640	1.8597E+00	4.9767E-02
1.650	1.8551E+00	5.0705E-02
1.660	1.8505E+00	5.1660E-02
1.670	1.8459E+00	5.2632E-02
1.680	1.8412E+00	5.3621E-02
1.690	1.8365E+00	5.4628E-02
1.700	1.8318E+00	5.5652E-02
1.710	1.8271E+00	5.6694E-02
1.720	1.8223E+00	5.7754E-02
1.730	1.8175E+00	5.8832E-02
1.740	1.8126E+00	5.9929E-02
1.750	1.8078E+00	6.1045E-02
1.760	1.8029E+00	6.2179E-02
1.770	1.7979E+00	6.3333E-02
1.780	1.7930E+00	6.4506E-02
1.790	1.7880E+00	6.5699E-02
1.800	1.7829E+00	6.6912E-02
1.810	1.7779E+00	6.8146E-02
1.820	1.7728E+00	6.9400E-02
1.830	1.7676E+00	7.0674E-02
1.840	1.7625E+00	7.1970E-02
1.850	1.7573E+00	7.3288E-02
1.860	1.7520E+00	7.4627E-02
1.870	1.7467E+00	7.5988E-02
1.880	1.7414E+00	7.7372E-02
1.890	1.7361E+00	7.8779E-02
1.900	1.7307E+00	8.0208E-02
1.910	1.7253E+00	8.1662E-02
1.920	1.7198E+00	8.3139E-02
1.930	1.7144E+00	8.4640E-02
1.940	1.7088E+00	8.6166E-02
1.950	1.7033E+00	8.7716E-02
1.960	1.6977E+00	8.9293E-02
1.970	1.6920E+00	9.0895E-02
1.980	1.6864E+00	9.2523E-02
1.990	1.6806E+00	9.4178E-02
2.000	1.6749E+00	9.5860E-02
2.010	1.6691E+00	9.7569E-02
2.020	1.6633E+00	9.9307E-02
2.030	1.6574E+00	1.0107E-01
2.040	1.6515E+00	1.0287E-01
2.050	1.6455E+00	1.0469E-01
2.060	1.6395E+00	1.0655E-01
2.070	1.6335E+00	1.0843E-01
2.080	1.6274E+00	1.1035E-01
2.090	1.6213E+00	1.1230E-01
2.100	1.6152E+00	1.1428E-01
2.110	1.6090E+00	1.1629E-01
2.120	1.6027E+00	1.1833E-01
2.130	1.5964E+00	1.2041E-01
2.140	1.5901E+00	1.2253E-01
2.150	1.5837E+00	1.2468E-01
2.160	1.5773E+00	1.2687E-01
2.170	1.5708E+00	1.2909E-01
2.180	1.5643E+00	1.3135E-01
2.190	1.5578E+00	1.3365E-01
2.200	1.5512E+00	1.3598E-01
2.210	1.5445E+00	1.3836E-01
2.220	1.5378E+00	1.4078E-01
2.230	1.5311E+00	1.4324E-01
2.240	1.5243E+00	1.4574E-01
2.250	1.5175E+00	1.4828E-01
2.260	1.5106E+00	1.5087E-01
2.270	1.5037E+00	1.5350E-01
2.280	1.4967E+00	1.5618E-01
2.290	1.4897E+00	1.5891E-01
2.300	1.4826E+00	1.6168E-01
2.310	1.4755E+00	1.6450E-01
2.320	1.4684E+00	1.6737E-01
2.330	1.4611E+00	1.7029E-01
2.340	1.4539E+00	1.7326E-01
2.350	1.4466E+00	1.7629E-01
2.360	1.4392E+00	1.7937E-01
2.370	1.4318E+00	1.8251E-01
2.380	1.4243E+00	1.8570E-01
2.390	1.4168E+00	1.8896E-01
2.400	1.4092E+00	1.9227E-01
2.410	1.4016E+00	1.9564E-01
2.420	1.3939E+00	1.9907E-01
2.430	1.3862E+00	2.0257E-01
2.440	1.3785E+00	2.0613E-01
2.450	1.3706E+00	2.0976E-01
2.460	1.3628E+00	2.1346E-01
2.470	1.3548E+00	2.1723E-01
2.480	1.3468E+00	2.2107E-01
2.490	1.3388E+00	2.2498E-01
2.500	1.3307E+00	2.2897E-01
2.510	1.3226E+00	2.3304E-01
2.520	1.3144E+00	2.3718E-01
2.530	1.3062E+00	2.4141E-01
2.540	1.2979E+00	2.4572E-01
2.550	1.2895E+00	2.5011E-01
2.560	1.2811E+00	2.5460E-01
2.570	1.2727E+00	2.5917E-01
2.580	1.2642E+00	2.6383E-01
2.590	1.2557E+00	2.6859E-01
2.600	1.2471E+00	2.7344E-01
2.610	1.2384E+00	2.7839E-01
2.620	1.2298E+00	2.8345E-01
2.630	1.2210E+00	2.8860E-01
2.640	1.2123E+00	2.9387E-01
2.650	1.2034E+00	2.9924E-01
2.660	1.1946E+00	3.0473E-01
2.670	1.1857E+00	3.1033E-01
2.680	1.1767E+00	3.1604E-01
2.690	1.1677E+00	3.2188E-01
2.700	1.1587E+00	3.2784E-01
2.710	1.1497E+00	3.3393E-01
2.720	1.1406E+00	3.4014E-01
2.730	1.1314E+00	3.4649E-01
2.740	1.1223E+00	3.5297E-01
2.750	1.1131E+00	3.5959E-01
2.760	1.1039E+00	3.6636E-01
2.770	1.0947E+00	3.7326E-01
2.780	1.0855E+00	3.8032E-01
2.790	1.0762E+00	3.8752E-01
2.800	1.0669E+00	3.9487E-01
2.810	1.0577E+00	4.0239E-01
2.820	1.0484E+00	4.1006E-01
2.830	1.0391E+00	4.1789E-01
2.840	1.0299E+00	4.2588E-01
2.850	1.0206E+00	4.3404E-01
2.860	1.0114E+00	4.4237E-01
2.870	1.0022E+00	4.5086E-01
2.880	9.9301E-01	4.5953E-01
2.890	9.8386E-01	4.6837E-01
2.900	9.7475E-01	4.7739E-01
2.910	9.6568E-01	4.8658E-01
2.920	9.5667E-01	4.9594E-01
2.930	9.4771E-01	5.0548E-01
2.940	9.3882E-01	5.1520E-01
2.950	9.3001E-01	5.2509E-01
2.960	9.2127E-01	5.3515E-01
2.970	9.1261E-01	5.4539E-01
2.980	9.0405E-01	5.5580E-01
2.990	8.9559E-01	5.6638E-01
3.000	8.8724E-01	5.7712E-01
3.010	8.7899E-01	5.8802E-01
3.020	8.7087E-01	5.9909E-01
3.030	8.6288E-01	6.1031E-01
3.040	8.5502E-01	6.2167E-01
3.050	8.4729E-01	6.3319E-01
3.060	8.3971E-01	6.4484E-01
3.070	8.3228E-01	6.5663E-01
3.080	8.2501E-01	6.6855E-01
3.090	8.1789E-01	6.8059E-01
3.100	8.1094E-01	6.9274E-01
3.110	8.0416E-01	7.0501E-01
3.120	7.9754E-01	7.1737E-01
3.130	7.9110E-01	7.2983E-01
3.140	7.8484E-01	7.4238E-01
3.150	7.7876E-01	7.5500E-01
3.160	7.7285E-01	7.6770E-01
3.170	7.6713E-01	7.8046E-01
3.180	7.6158E-01	7.9328E-01
3.190	7.5622E-01	8.0615E-01
3.200	7.5104E-01	8.1906E-01
