Material: mixed crystals / ZnO-CdO / Aguilar-90
Optical constants. O. Aguilar, S. de Castro, M. P. F. Godoy, M. R. S. Dias. Optoelectronic characterization of Zn1-xCdxO thin films as an alternative to photonic crystals in organic solar cells, Opt. Mater. Express 9, 3638-3648 (2019) (Numerical data kindly provided by Mariama Rebello de Sousa Dias)
Comments: Zn0.9Cd0.1O (90% ZnO, 10% CdO) thin film.
wavelength (um)	n	k
0.300	1.7235E+00	4.3664E-01
0.310	1.7360E+00	4.5198E-01
0.320	1.7578E+00	4.6405E-01
0.330	1.7860E+00	4.6977E-01
0.340	1.8175E+00	4.6779E-01
0.350	1.8490E+00	4.5816E-01
0.360	1.8783E+00	4.4196E-01
0.370	1.9039E+00	4.2072E-01
0.380	1.9248E+00	3.9608E-01
0.390	1.9409E+00	3.6958E-01
0.400	1.9524E+00	3.4247E-01
0.410	1.9597E+00	3.1577E-01
0.420	1.9634E+00	2.9018E-01
0.430	1.9641E+00	2.6618E-01
0.440	1.9625E+00	2.4404E-01
0.450	1.9590E+00	2.2389E-01
0.460	1.9542E+00	2.0572E-01
0.470	1.9485E+00	1.8948E-01
0.480	1.9422E+00	1.7504E-01
0.490	1.9355E+00	1.6226E-01
0.500	1.9287E+00	1.5096E-01
0.510	1.9219E+00	1.4101E-01
0.520	1.9153E+00	1.3222E-01
0.530	1.9088E+00	1.2447E-01
0.540	1.9026E+00	1.1762E-01
0.550	1.8967E+00	1.1155E-01
0.560	1.8911E+00	1.0615E-01
0.570	1.8859E+00	1.0133E-01
0.580	1.8809E+00	9.7017E-02
0.590	1.8762E+00	9.3137E-02
0.600	1.8718E+00	8.9633E-02
0.610	1.8677E+00	8.6453E-02
0.620	1.8639E+00	8.3555E-02
0.630	1.8603E+00	8.0902E-02
0.640	1.8569E+00	7.8462E-02
0.650	1.8537E+00	7.6209E-02
0.660	1.8507E+00	7.4120E-02
0.670	1.8479E+00	7.2175E-02
0.680	1.8453E+00	7.0359E-02
0.690	1.8428E+00	6.8658E-02
0.700	1.8404E+00	6.7058E-02
0.710	1.8382E+00	6.5549E-02
0.720	1.8361E+00	6.4123E-02
0.730	1.8341E+00	6.2771E-02
0.740	1.8322E+00	6.1487E-02
0.750	1.8304E+00	6.0265E-02
0.760	1.8287E+00	5.9099E-02
0.770	1.8271E+00	5.7985E-02
0.780	1.8256E+00	5.6920E-02
0.790	1.8241E+00	5.5898E-02
0.800	1.8227E+00	5.4918E-02
0.810	1.8214E+00	5.3976E-02
0.820	1.8201E+00	5.3069E-02
0.830	1.8189E+00	5.2196E-02
0.840	1.8177E+00	5.1355E-02
0.850	1.8166E+00	5.0542E-02
0.860	1.8156E+00	4.9758E-02
0.870	1.8145E+00	4.8999E-02
0.880	1.8135E+00	4.8266E-02
0.890	1.8126E+00	4.7555E-02
0.900	1.8117E+00	4.6867E-02
0.910	1.8108E+00	4.6200E-02
0.920	1.8100E+00	4.5553E-02
0.930	1.8091E+00	4.4926E-02
0.940	1.8084E+00	4.4316E-02
0.950	1.8076E+00	4.3723E-02
0.960	1.8069E+00	4.3148E-02
0.970	1.8062E+00	4.2588E-02
0.980	1.8055E+00	4.2043E-02
0.990	1.8048E+00	4.1513E-02
1.000	1.8042E+00	4.0996E-02
1.010	1.8036E+00	4.0493E-02
1.020	1.8030E+00	4.0003E-02
1.030	1.8024E+00	3.9525E-02
1.040	1.8018E+00	3.9059E-02
1.050	1.8013E+00	3.8604E-02
1.060	1.8008E+00	3.8161E-02
1.070	1.8003E+00	3.7727E-02
1.080	1.7998E+00	3.7304E-02
1.090	1.7993E+00	3.6891E-02
1.100	1.7988E+00	3.6487E-02
1.110	1.7984E+00	3.6093E-02
1.120	1.7979E+00	3.5707E-02
1.130	1.7975E+00	3.5330E-02
1.140	1.7971E+00	3.4961E-02
1.150	1.7967E+00	3.4600E-02
1.160	1.7963E+00	3.4246E-02
1.170	1.7959E+00	3.3900E-02
1.180	1.7956E+00	3.3561E-02
1.190	1.7952E+00	3.3230E-02
1.200	1.7948E+00	3.2905E-02
1.210	1.7945E+00	3.2586E-02
1.220	1.7942E+00	3.2274E-02
1.230	1.7938E+00	3.1968E-02
1.240	1.7935E+00	3.1668E-02
1.250	1.7932E+00	3.1374E-02
1.260	1.7929E+00	3.1085E-02
1.270	1.7926E+00	3.0802E-02
1.280	1.7923E+00	3.0524E-02
1.290	1.7920E+00	3.0252E-02
1.300	1.7918E+00	2.9984E-02
1.310	1.7915E+00	2.9721E-02
1.320	1.7912E+00	2.9463E-02
1.330	1.7910E+00	2.9210E-02
1.340	1.7907E+00	2.8961E-02
1.350	1.7905E+00	2.8716E-02
1.360	1.7903E+00	2.8476E-02
1.370	1.7900E+00	2.8240E-02
1.380	1.7898E+00	2.8008E-02
1.390	1.7896E+00	2.7780E-02
1.400	1.7894E+00	2.7555E-02
1.410	1.7891E+00	2.7334E-02
1.420	1.7889E+00	2.7117E-02
1.430	1.7887E+00	2.6904E-02
1.440	1.7885E+00	2.6694E-02
1.450	1.7883E+00	2.6487E-02
1.460	1.7882E+00	2.6284E-02
1.470	1.7880E+00	2.6084E-02
1.480	1.7878E+00	2.5887E-02
1.490	1.7876E+00	2.5692E-02
1.500	1.7874E+00	2.5501E-02
1.510	1.7873E+00	2.5313E-02
1.520	1.7871E+00	2.5128E-02
1.530	1.7869E+00	2.4946E-02
1.540	1.7868E+00	2.4766E-02
1.550	1.7866E+00	2.4589E-02
1.560	1.7865E+00	2.4414E-02
1.570	1.7863E+00	2.4242E-02
1.580	1.7862E+00	2.4073E-02
1.590	1.7860E+00	2.3906E-02
1.600	1.7859E+00	2.3741E-02
1.610	1.7857E+00	2.3579E-02
1.620	1.7856E+00	2.3419E-02
1.630	1.7854E+00	2.3261E-02
1.640	1.7853E+00	2.3105E-02
1.650	1.7852E+00	2.2952E-02
1.660	1.7851E+00	2.2800E-02
1.670	1.7849E+00	2.2651E-02
1.680	1.7848E+00	2.2503E-02
1.690	1.7847E+00	2.2358E-02
1.700	1.7846E+00	2.2214E-02
1.710	1.7844E+00	2.2073E-02
1.720	1.7843E+00	2.1933E-02
1.730	1.7842E+00	2.1795E-02
1.740	1.7841E+00	2.1659E-02
1.750	1.7840E+00	2.1524E-02
1.760	1.7839E+00	2.1392E-02
1.770	1.7838E+00	2.1261E-02
1.780	1.7837E+00	2.1131E-02
1.790	1.7836E+00	2.1003E-02
1.800	1.7835E+00	2.0877E-02
1.810	1.7834E+00	2.0753E-02
1.820	1.7833E+00	2.0629E-02
1.830	1.7832E+00	2.0508E-02
1.840	1.7831E+00	2.0387E-02
1.850	1.7830E+00	2.0269E-02
1.860	1.7829E+00	2.0151E-02
1.870	1.7828E+00	2.0035E-02
1.880	1.7827E+00	1.9921E-02
1.890	1.7827E+00	1.9808E-02
1.900	1.7826E+00	1.9696E-02
1.910	1.7825E+00	1.9585E-02
1.920	1.7824E+00	1.9476E-02
1.930	1.7823E+00	1.9367E-02
1.940	1.7822E+00	1.9261E-02
1.950	1.7822E+00	1.9155E-02
1.960	1.7821E+00	1.9050E-02
1.970	1.7820E+00	1.8947E-02
1.980	1.7819E+00	1.8845E-02
1.990	1.7819E+00	1.8744E-02
2.000	1.7818E+00	1.8644E-02
2.010	1.7817E+00	1.8545E-02
2.020	1.7816E+00	1.8447E-02
2.030	1.7816E+00	1.8350E-02
2.040	1.7815E+00	1.8254E-02
2.050	1.7814E+00	1.8160E-02
2.060	1.7814E+00	1.8066E-02
2.070	1.7813E+00	1.7973E-02
2.080	1.7812E+00	1.7881E-02
2.090	1.7812E+00	1.7791E-02
2.100	1.7811E+00	1.7701E-02
2.110	1.7811E+00	1.7612E-02
2.120	1.7810E+00	1.7524E-02
2.130	1.7809E+00	1.7437E-02
2.140	1.7809E+00	1.7350E-02
2.150	1.7808E+00	1.7265E-02
2.160	1.7808E+00	1.7180E-02
2.170	1.7807E+00	1.7097E-02
2.180	1.7807E+00	1.7014E-02
2.190	1.7806E+00	1.6932E-02
2.200	1.7805E+00	1.6850E-02
2.210	1.7805E+00	1.6770E-02
2.220	1.7804E+00	1.6690E-02
2.230	1.7804E+00	1.6611E-02
2.240	1.7803E+00	1.6533E-02
2.250	1.7803E+00	1.6456E-02
2.260	1.7802E+00	1.6379E-02
2.270	1.7802E+00	1.6303E-02
2.280	1.7801E+00	1.6228E-02
2.290	1.7801E+00	1.6153E-02
2.300	1.7800E+00	1.6080E-02
2.310	1.7800E+00	1.6007E-02
2.320	1.7799E+00	1.5934E-02
2.330	1.7799E+00	1.5862E-02
2.340	1.7799E+00	1.5791E-02
2.350	1.7798E+00	1.5721E-02
2.360	1.7798E+00	1.5651E-02
2.370	1.7797E+00	1.5582E-02
2.380	1.7797E+00	1.5513E-02
2.390	1.7796E+00	1.5445E-02
2.400	1.7796E+00	1.5378E-02
2.410	1.7796E+00	1.5311E-02
2.420	1.7795E+00	1.5245E-02
2.430	1.7795E+00	1.5179E-02
2.440	1.7794E+00	1.5114E-02
2.450	1.7794E+00	1.5049E-02
2.460	1.7794E+00	1.4986E-02
2.470	1.7793E+00	1.4922E-02
2.480	1.7793E+00	1.4859E-02
2.490	1.7792E+00	1.4797E-02
2.500	1.7792E+00	1.4735E-02
2.510	1.7792E+00	1.4674E-02
2.520	1.7791E+00	1.4613E-02
2.530	1.7791E+00	1.4553E-02
2.540	1.7791E+00	1.4493E-02
2.550	1.7790E+00	1.4434E-02
2.560	1.7790E+00	1.4375E-02
2.570	1.7790E+00	1.4317E-02
2.580	1.7789E+00	1.4259E-02
2.590	1.7789E+00	1.4202E-02
2.600	1.7789E+00	1.4145E-02
2.610	1.7788E+00	1.4089E-02
2.620	1.7788E+00	1.4033E-02
2.630	1.7788E+00	1.3978E-02
2.640	1.7787E+00	1.3923E-02
2.650	1.7787E+00	1.3868E-02
2.660	1.7787E+00	1.3814E-02
2.670	1.7786E+00	1.3760E-02
2.680	1.7786E+00	1.3707E-02
2.690	1.7786E+00	1.3654E-02
2.700	1.7786E+00	1.3601E-02
2.710	1.7785E+00	1.3549E-02
2.720	1.7785E+00	1.3498E-02
2.730	1.7785E+00	1.3447E-02
2.740	1.7784E+00	1.3396E-02
2.750	1.7784E+00	1.3345E-02
2.760	1.7784E+00	1.3295E-02
2.770	1.7784E+00	1.3245E-02
2.780	1.7783E+00	1.3196E-02
2.790	1.7783E+00	1.3147E-02
2.800	1.7783E+00	1.3099E-02
2.810	1.7783E+00	1.3050E-02
2.820	1.7782E+00	1.3002E-02
2.830	1.7782E+00	1.2955E-02
2.840	1.7782E+00	1.2908E-02
2.850	1.7782E+00	1.2861E-02
2.860	1.7781E+00	1.2814E-02
2.870	1.7781E+00	1.2768E-02
2.880	1.7781E+00	1.2723E-02
2.890	1.7781E+00	1.2677E-02
2.900	1.7780E+00	1.2632E-02
2.910	1.7780E+00	1.2587E-02
2.920	1.7780E+00	1.2543E-02
2.930	1.7780E+00	1.2498E-02
2.940	1.7779E+00	1.2455E-02
2.950	1.7779E+00	1.2411E-02
2.960	1.7779E+00	1.2368E-02
2.970	1.7779E+00	1.2325E-02
2.980	1.7779E+00	1.2282E-02
2.990	1.7778E+00	1.2240E-02
3.000	1.7778E+00	1.2198E-02
3.010	1.7778E+00	1.2156E-02
3.020	1.7778E+00	1.2115E-02
3.030	1.7777E+00	1.2073E-02
3.040	1.7777E+00	1.2033E-02
3.050	1.7777E+00	1.1992E-02
3.060	1.7777E+00	1.1952E-02
3.070	1.7777E+00	1.1912E-02
3.080	1.7776E+00	1.1872E-02
3.090	1.7776E+00	1.1832E-02
3.100	1.7776E+00	1.1793E-02
3.110	1.7776E+00	1.1754E-02
3.120	1.7776E+00	1.1715E-02
3.130	1.7776E+00	1.1677E-02
3.140	1.7775E+00	1.1639E-02
3.150	1.7775E+00	1.1601E-02
3.160	1.7775E+00	1.1563E-02
3.170	1.7775E+00	1.1525E-02
3.180	1.7775E+00	1.1488E-02
3.190	1.7774E+00	1.1451E-02
3.200	1.7774E+00	1.1414E-02
