Material: mixed crystals / ZnO-CdO / Aguilar-63
Optical constants. O. Aguilar, S. de Castro, M. P. F. Godoy, M. R. S. Dias. Optoelectronic characterization of Zn1-xCdxO thin films as an alternative to photonic crystals in organic solar cells, Opt. Mater. Express 9, 3638-3648 (2019) (Numerical data kindly provided by Mariama Rebello de Sousa Dias)
Comments: Zn0.63Cd0.37O (63% ZnO, 37% CdO) thin film.
wavelength (um)	n	k
0.300	1.9171E+00	9.5765E-02
0.310	1.8987E+00	9.5385E-02
0.320	1.8784E+00	1.0605E-01
0.330	1.8662E+00	1.3151E-01
0.340	1.8746E+00	1.6395E-01
0.350	1.9049E+00	1.8579E-01
0.360	1.9437E+00	1.8501E-01
0.370	1.9748E+00	1.6391E-01
0.380	1.9903E+00	1.3342E-01
0.390	1.9911E+00	1.0397E-01
0.400	1.9829E+00	8.1083E-02
0.410	1.9712E+00	6.5673E-02
0.420	1.9595E+00	5.6191E-02
0.430	1.9493E+00	5.0558E-02
0.440	1.9410E+00	4.7115E-02
0.450	1.9342E+00	4.4812E-02
0.460	1.9286E+00	4.3081E-02
0.470	1.9238E+00	4.1645E-02
0.480	1.9198E+00	4.0376E-02
0.490	1.9161E+00	3.9217E-02
0.500	1.9129E+00	3.8143E-02
0.510	1.9099E+00	3.7142E-02
0.520	1.9072E+00	3.6206E-02
0.530	1.9047E+00	3.5330E-02
0.540	1.9023E+00	3.4508E-02
0.550	1.9000E+00	3.3738E-02
0.560	1.8979E+00	3.3016E-02
0.570	1.8959E+00	3.2339E-02
0.580	1.8940E+00	3.1704E-02
0.590	1.8921E+00	3.1108E-02
0.600	1.8904E+00	3.0550E-02
0.610	1.8886E+00	3.0026E-02
0.620	1.8870E+00	2.9535E-02
0.630	1.8854E+00	2.9076E-02
0.640	1.8839E+00	2.8646E-02
0.650	1.8824E+00	2.8243E-02
0.660	1.8809E+00	2.7867E-02
0.670	1.8795E+00	2.7516E-02
0.680	1.8781E+00	2.7190E-02
0.690	1.8767E+00	2.6886E-02
0.700	1.8754E+00	2.6603E-02
0.710	1.8741E+00	2.6342E-02
0.720	1.8728E+00	2.6101E-02
0.730	1.8716E+00	2.5879E-02
0.740	1.8703E+00	2.5675E-02
0.750	1.8691E+00	2.5490E-02
0.760	1.8679E+00	2.5321E-02
0.770	1.8667E+00	2.5169E-02
0.780	1.8655E+00	2.5033E-02
0.790	1.8643E+00	2.4913E-02
0.800	1.8632E+00	2.4807E-02
0.810	1.8620E+00	2.4717E-02
0.820	1.8609E+00	2.4640E-02
0.830	1.8597E+00	2.4577E-02
0.840	1.8586E+00	2.4528E-02
0.850	1.8575E+00	2.4492E-02
0.860	1.8564E+00	2.4468E-02
0.870	1.8553E+00	2.4458E-02
0.880	1.8542E+00	2.4459E-02
0.890	1.8531E+00	2.4472E-02
0.900	1.8520E+00	2.4498E-02
0.910	1.8509E+00	2.4534E-02
0.920	1.8498E+00	2.4582E-02
0.930	1.8488E+00	2.4642E-02
0.940	1.8477E+00	2.4712E-02
0.950	1.8466E+00	2.4793E-02
0.960	1.8455E+00	2.4885E-02
0.970	1.8444E+00	2.4987E-02
0.980	1.8434E+00	2.5099E-02
0.990	1.8423E+00	2.5222E-02
1.000	1.8412E+00	2.5355E-02
1.010	1.8401E+00	2.5498E-02
1.020	1.8391E+00	2.5651E-02
1.030	1.8380E+00	2.5814E-02
1.040	1.8369E+00	2.5986E-02
1.050	1.8358E+00	2.6168E-02
1.060	1.8348E+00	2.6360E-02
1.070	1.8337E+00	2.6561E-02
1.080	1.8326E+00	2.6772E-02
1.090	1.8315E+00	2.6992E-02
1.100	1.8304E+00	2.7221E-02
1.110	1.8293E+00	2.7459E-02
1.120	1.8282E+00	2.7707E-02
1.130	1.8272E+00	2.7964E-02
1.140	1.8261E+00	2.8230E-02
1.150	1.8250E+00	2.8505E-02
1.160	1.8239E+00	2.8789E-02
1.170	1.8228E+00	2.9082E-02
1.180	1.8217E+00	2.9384E-02
1.190	1.8205E+00	2.9695E-02
1.200	1.8194E+00	3.0015E-02
1.210	1.8183E+00	3.0344E-02
1.220	1.8172E+00	3.0682E-02
1.230	1.8161E+00	3.1029E-02
1.240	1.8150E+00	3.1384E-02
1.250	1.8138E+00	3.1748E-02
1.260	1.8127E+00	3.2121E-02
1.270	1.8116E+00	3.2503E-02
1.280	1.8104E+00	3.2894E-02
1.290	1.8093E+00	3.3293E-02
1.300	1.8082E+00	3.3702E-02
1.310	1.8070E+00	3.4119E-02
1.320	1.8059E+00	3.4545E-02
1.330	1.8047E+00	3.4979E-02
1.340	1.8036E+00	3.5422E-02
1.350	1.8024E+00	3.5875E-02
1.360	1.8012E+00	3.6335E-02
1.370	1.8001E+00	3.6805E-02
1.380	1.7989E+00	3.7283E-02
1.390	1.7977E+00	3.7771E-02
1.400	1.7965E+00	3.8266E-02
1.410	1.7954E+00	3.8771E-02
1.420	1.7942E+00	3.9285E-02
1.430	1.7930E+00	3.9807E-02
1.440	1.7918E+00	4.0338E-02
1.450	1.7906E+00	4.0878E-02
1.460	1.7894E+00	4.1426E-02
1.470	1.7882E+00	4.1984E-02
1.480	1.7870E+00	4.2550E-02
1.490	1.7858E+00	4.3125E-02
1.500	1.7846E+00	4.3709E-02
1.510	1.7834E+00	4.4302E-02
1.520	1.7821E+00	4.4904E-02
1.530	1.7809E+00	4.5514E-02
1.540	1.7797E+00	4.6133E-02
1.550	1.7785E+00	4.6762E-02
1.560	1.7772E+00	4.7399E-02
1.570	1.7760E+00	4.8045E-02
1.580	1.7747E+00	4.8700E-02
1.590	1.7735E+00	4.9364E-02
1.600	1.7723E+00	5.0037E-02
1.610	1.7710E+00	5.0719E-02
1.620	1.7698E+00	5.1409E-02
1.630	1.7685E+00	5.2109E-02
1.640	1.7672E+00	5.2818E-02
1.650	1.7660E+00	5.3536E-02
1.660	1.7647E+00	5.4262E-02
1.670	1.7635E+00	5.4998E-02
1.680	1.7622E+00	5.5743E-02
1.690	1.7609E+00	5.6497E-02
1.700	1.7596E+00	5.7260E-02
1.710	1.7583E+00	5.8032E-02
1.720	1.7571E+00	5.8813E-02
1.730	1.7558E+00	5.9603E-02
1.740	1.7545E+00	6.0403E-02
1.750	1.7532E+00	6.1211E-02
1.760	1.7519E+00	6.2029E-02
1.770	1.7506E+00	6.2855E-02
1.780	1.7493E+00	6.3691E-02
1.790	1.7480E+00	6.4536E-02
1.800	1.7467E+00	6.5391E-02
1.810	1.7454E+00	6.6254E-02
1.820	1.7441E+00	6.7127E-02
1.830	1.7428E+00	6.8008E-02
1.840	1.7415E+00	6.8900E-02
1.850	1.7402E+00	6.9800E-02
1.860	1.7388E+00	7.0709E-02
1.870	1.7375E+00	7.1628E-02
1.880	1.7362E+00	7.2556E-02
1.890	1.7349E+00	7.3494E-02
1.900	1.7335E+00	7.4440E-02
1.910	1.7322E+00	7.5396E-02
1.920	1.7309E+00	7.6361E-02
1.930	1.7296E+00	7.7336E-02
1.940	1.7282E+00	7.8320E-02
1.950	1.7269E+00	7.9313E-02
1.960	1.7255E+00	8.0316E-02
1.970	1.7242E+00	8.1328E-02
1.980	1.7229E+00	8.2349E-02
1.990	1.7215E+00	8.3380E-02
2.000	1.7202E+00	8.4420E-02
2.010	1.7188E+00	8.5469E-02
2.020	1.7175E+00	8.6528E-02
2.030	1.7161E+00	8.7596E-02
2.040	1.7148E+00	8.8674E-02
2.050	1.7134E+00	8.9761E-02
2.060	1.7121E+00	9.0858E-02
2.070	1.7107E+00	9.1963E-02
2.080	1.7094E+00	9.3079E-02
2.090	1.7080E+00	9.4204E-02
2.100	1.7067E+00	9.5338E-02
2.110	1.7053E+00	9.6482E-02
2.120	1.7040E+00	9.7635E-02
2.130	1.7026E+00	9.8797E-02
2.140	1.7012E+00	9.9969E-02
2.150	1.6999E+00	1.0115E-01
2.160	1.6985E+00	1.0234E-01
2.170	1.6971E+00	1.0354E-01
2.180	1.6958E+00	1.0475E-01
2.190	1.6944E+00	1.0597E-01
2.200	1.6931E+00	1.0720E-01
2.210	1.6917E+00	1.0844E-01
2.220	1.6903E+00	1.0969E-01
2.230	1.6890E+00	1.1094E-01
2.240	1.6876E+00	1.1221E-01
2.250	1.6862E+00	1.1349E-01
2.260	1.6849E+00	1.1477E-01
2.270	1.6835E+00	1.1607E-01
2.280	1.6821E+00	1.1737E-01
2.290	1.6808E+00	1.1869E-01
2.300	1.6794E+00	1.2001E-01
2.310	1.6780E+00	1.2134E-01
2.320	1.6767E+00	1.2269E-01
2.330	1.6753E+00	1.2404E-01
2.340	1.6739E+00	1.2540E-01
2.350	1.6726E+00	1.2677E-01
2.360	1.6712E+00	1.2815E-01
2.370	1.6698E+00	1.2954E-01
2.380	1.6685E+00	1.3094E-01
2.390	1.6671E+00	1.3235E-01
2.400	1.6658E+00	1.3377E-01
2.410	1.6644E+00	1.3520E-01
2.420	1.6630E+00	1.3664E-01
2.430	1.6617E+00	1.3808E-01
2.440	1.6603E+00	1.3954E-01
2.450	1.6590E+00	1.4100E-01
2.460	1.6576E+00	1.4248E-01
2.470	1.6563E+00	1.4396E-01
2.480	1.6549E+00	1.4546E-01
2.490	1.6535E+00	1.4696E-01
2.500	1.6522E+00	1.4847E-01
2.510	1.6508E+00	1.5000E-01
2.520	1.6495E+00	1.5153E-01
2.530	1.6482E+00	1.5307E-01
2.540	1.6468E+00	1.5462E-01
2.550	1.6455E+00	1.5618E-01
2.560	1.6441E+00	1.5775E-01
2.570	1.6428E+00	1.5932E-01
2.580	1.6414E+00	1.6091E-01
2.590	1.6401E+00	1.6251E-01
2.600	1.6388E+00	1.6411E-01
2.610	1.6374E+00	1.6573E-01
2.620	1.6361E+00	1.6735E-01
2.630	1.6348E+00	1.6899E-01
2.640	1.6334E+00	1.7063E-01
2.650	1.6321E+00	1.7228E-01
2.660	1.6308E+00	1.7394E-01
2.670	1.6295E+00	1.7561E-01
2.680	1.6282E+00	1.7729E-01
2.690	1.6268E+00	1.7898E-01
2.700	1.6255E+00	1.8068E-01
2.710	1.6242E+00	1.8239E-01
2.720	1.6229E+00	1.8410E-01
2.730	1.6216E+00	1.8583E-01
2.740	1.6203E+00	1.8756E-01
2.750	1.6190E+00	1.8930E-01
2.760	1.6177E+00	1.9106E-01
2.770	1.6164E+00	1.9282E-01
2.780	1.6151E+00	1.9459E-01
2.790	1.6138E+00	1.9637E-01
2.800	1.6126E+00	1.9815E-01
2.810	1.6113E+00	1.9995E-01
2.820	1.6100E+00	2.0176E-01
2.830	1.6087E+00	2.0357E-01
2.840	1.6075E+00	2.0539E-01
2.850	1.6062E+00	2.0723E-01
2.860	1.6049E+00	2.0907E-01
2.870	1.6037E+00	2.1092E-01
2.880	1.6024E+00	2.1278E-01
2.890	1.6012E+00	2.1464E-01
2.900	1.5999E+00	2.1652E-01
2.910	1.5987E+00	2.1840E-01
2.920	1.5974E+00	2.2030E-01
2.930	1.5962E+00	2.2220E-01
2.940	1.5949E+00	2.2411E-01
2.950	1.5937E+00	2.2602E-01
2.960	1.5925E+00	2.2795E-01
2.970	1.5913E+00	2.2989E-01
2.980	1.5900E+00	2.3183E-01
2.990	1.5888E+00	2.3378E-01
3.000	1.5876E+00	2.3574E-01
3.010	1.5864E+00	2.3771E-01
3.020	1.5852E+00	2.3969E-01
3.030	1.5840E+00	2.4168E-01
3.040	1.5828E+00	2.4367E-01
3.050	1.5816E+00	2.4567E-01
3.060	1.5805E+00	2.4768E-01
3.070	1.5793E+00	2.4970E-01
3.080	1.5781E+00	2.5173E-01
3.090	1.5769E+00	2.5376E-01
3.100	1.5758E+00	2.5580E-01
3.110	1.5746E+00	2.5785E-01
3.120	1.5735E+00	2.5991E-01
3.130	1.5723E+00	2.6198E-01
3.140	1.5712E+00	2.6405E-01
3.150	1.5700E+00	2.6613E-01
3.160	1.5689E+00	2.6822E-01
3.170	1.5678E+00	2.7032E-01
3.180	1.5666E+00	2.7242E-01
3.190	1.5655E+00	2.7454E-01
3.200	1.5644E+00	2.7666E-01
