Material: mixed crystals / ZnO-CdO / Aguilar-40
Optical constants. O. Aguilar, S. de Castro, M. P. F. Godoy, M. R. S. Dias. Optoelectronic characterization of Zn1-xCdxO thin films as an alternative to photonic crystals in organic solar cells, Opt. Mater. Express 9, 3638-3648 (2019) (Numerical data kindly provided by Mariama Rebello de Sousa Dias)
Comments: Zn0.4Cd0.6O (40% ZnO, 60% CdO) thin film.
wavelength (um)	n	k
0.300	1.7431E+00	3.2836E-01
0.310	1.7558E+00	3.6085E-01
0.320	1.7812E+00	3.9017E-01
0.330	1.8165E+00	4.1171E-01
0.340	1.8575E+00	4.2303E-01
0.350	1.9001E+00	4.2374E-01
0.360	1.9409E+00	4.1488E-01
0.370	1.9777E+00	3.9829E-01
0.380	2.0090E+00	3.7605E-01
0.390	2.0343E+00	3.5016E-01
0.400	2.0538E+00	3.2235E-01
0.410	2.0677E+00	2.9402E-01
0.420	2.0768E+00	2.6621E-01
0.430	2.0817E+00	2.3967E-01
0.440	2.0832E+00	2.1487E-01
0.450	2.0820E+00	1.9211E-01
0.460	2.0787E+00	1.7148E-01
0.470	2.0738E+00	1.5299E-01
0.480	2.0677E+00	1.3656E-01
0.490	2.0610E+00	1.2206E-01
0.500	2.0537E+00	1.0934E-01
0.510	2.0463E+00	9.8212E-02
0.520	2.0387E+00	8.8517E-02
0.530	2.0313E+00	8.0085E-02
0.540	2.0240E+00	7.2761E-02
0.550	2.0170E+00	6.6400E-02
0.560	2.0102E+00	6.0875E-02
0.570	2.0038E+00	5.6072E-02
0.580	1.9976E+00	5.1891E-02
0.590	1.9917E+00	4.8245E-02
0.600	1.9862E+00	4.5057E-02
0.610	1.9809E+00	4.2264E-02
0.620	1.9759E+00	3.9810E-02
0.630	1.9712E+00	3.7647E-02
0.640	1.9667E+00	3.5734E-02
0.650	1.9625E+00	3.4036E-02
0.660	1.9585E+00	3.2525E-02
0.670	1.9546E+00	3.1176E-02
0.680	1.9510E+00	2.9967E-02
0.690	1.9475E+00	2.8879E-02
0.700	1.9442E+00	2.7898E-02
0.710	1.9410E+00	2.7011E-02
0.720	1.9379E+00	2.6206E-02
0.730	1.9350E+00	2.5474E-02
0.740	1.9321E+00	2.4806E-02
0.750	1.9294E+00	2.4196E-02
0.760	1.9268E+00	2.3637E-02
0.770	1.9242E+00	2.3124E-02
0.780	1.9218E+00	2.2652E-02
0.790	1.9194E+00	2.2218E-02
0.800	1.9170E+00	2.1819E-02
0.810	1.9148E+00	2.1451E-02
0.820	1.9125E+00	2.1111E-02
0.830	1.9104E+00	2.0798E-02
0.840	1.9083E+00	2.0509E-02
0.850	1.9062E+00	2.0243E-02
0.860	1.9042E+00	1.9997E-02
0.870	1.9022E+00	1.9772E-02
0.880	1.9002E+00	1.9564E-02
0.890	1.8983E+00	1.9374E-02
0.900	1.8964E+00	1.9200E-02
0.910	1.8945E+00	1.9042E-02
0.920	1.8927E+00	1.8898E-02
0.930	1.8908E+00	1.8769E-02
0.940	1.8890E+00	1.8652E-02
0.950	1.8872E+00	1.8548E-02
0.960	1.8855E+00	1.8456E-02
0.970	1.8837E+00	1.8376E-02
0.980	1.8820E+00	1.8307E-02
0.990	1.8802E+00	1.8249E-02
1.000	1.8785E+00	1.8201E-02
1.010	1.8768E+00	1.8163E-02
1.020	1.8751E+00	1.8135E-02
1.030	1.8734E+00	1.8116E-02
1.040	1.8718E+00	1.8107E-02
1.050	1.8701E+00	1.8107E-02
1.060	1.8684E+00	1.8115E-02
1.070	1.8668E+00	1.8132E-02
1.080	1.8651E+00	1.8157E-02
1.090	1.8635E+00	1.8191E-02
1.100	1.8618E+00	1.8232E-02
1.110	1.8602E+00	1.8281E-02
1.120	1.8585E+00	1.8338E-02
1.130	1.8569E+00	1.8403E-02
1.140	1.8552E+00	1.8475E-02
1.150	1.8536E+00	1.8555E-02
1.160	1.8520E+00	1.8641E-02
1.170	1.8503E+00	1.8735E-02
1.180	1.8487E+00	1.8836E-02
1.190	1.8470E+00	1.8944E-02
1.200	1.8454E+00	1.9059E-02
1.210	1.8437E+00	1.9181E-02
1.220	1.8421E+00	1.9310E-02
1.230	1.8404E+00	1.9445E-02
1.240	1.8388E+00	1.9587E-02
1.250	1.8371E+00	1.9736E-02
1.260	1.8355E+00	1.9891E-02
1.270	1.8338E+00	2.0053E-02
1.280	1.8321E+00	2.0222E-02
1.290	1.8304E+00	2.0397E-02
1.300	1.8288E+00	2.0578E-02
1.310	1.8271E+00	2.0766E-02
1.320	1.8254E+00	2.0961E-02
1.330	1.8237E+00	2.1162E-02
1.340	1.8220E+00	2.1369E-02
1.350	1.8203E+00	2.1582E-02
1.360	1.8186E+00	2.1802E-02
1.370	1.8168E+00	2.2029E-02
1.380	1.8151E+00	2.2262E-02
1.390	1.8134E+00	2.2501E-02
1.400	1.8116E+00	2.2746E-02
1.410	1.8099E+00	2.2998E-02
1.420	1.8081E+00	2.3256E-02
1.430	1.8064E+00	2.3521E-02
1.440	1.8046E+00	2.3792E-02
1.450	1.8028E+00	2.4070E-02
1.460	1.8010E+00	2.4353E-02
1.470	1.7992E+00	2.4644E-02
1.480	1.7974E+00	2.4940E-02
1.490	1.7956E+00	2.5244E-02
1.500	1.7938E+00	2.5553E-02
1.510	1.7920E+00	2.5869E-02
1.520	1.7902E+00	2.6192E-02
1.530	1.7883E+00	2.6521E-02
1.540	1.7865E+00	2.6857E-02
1.550	1.7846E+00	2.7199E-02
1.560	1.7828E+00	2.7548E-02
1.570	1.7809E+00	2.7904E-02
1.580	1.7790E+00	2.8266E-02
1.590	1.7771E+00	2.8635E-02
1.600	1.7752E+00	2.9010E-02
1.610	1.7733E+00	2.9393E-02
1.620	1.7714E+00	2.9782E-02
1.630	1.7694E+00	3.0178E-02
1.640	1.7675E+00	3.0581E-02
1.650	1.7656E+00	3.0990E-02
1.660	1.7636E+00	3.1407E-02
1.670	1.7616E+00	3.1830E-02
1.680	1.7596E+00	3.2261E-02
1.690	1.7577E+00	3.2699E-02
1.700	1.7557E+00	3.3143E-02
1.710	1.7537E+00	3.3595E-02
1.720	1.7516E+00	3.4054E-02
1.730	1.7496E+00	3.4520E-02
1.740	1.7476E+00	3.4993E-02
1.750	1.7455E+00	3.5474E-02
1.760	1.7435E+00	3.5962E-02
1.770	1.7414E+00	3.6457E-02
1.780	1.7393E+00	3.6960E-02
1.790	1.7372E+00	3.7470E-02
1.800	1.7351E+00	3.7988E-02
1.810	1.7330E+00	3.8513E-02
1.820	1.7309E+00	3.9046E-02
1.830	1.7288E+00	3.9587E-02
1.840	1.7266E+00	4.0135E-02
1.850	1.7245E+00	4.0691E-02
1.860	1.7223E+00	4.1255E-02
1.870	1.7202E+00	4.1827E-02
1.880	1.7180E+00	4.2407E-02
1.890	1.7158E+00	4.2994E-02
1.900	1.7136E+00	4.3590E-02
1.910	1.7114E+00	4.4194E-02
1.920	1.7091E+00	4.4806E-02
1.930	1.7069E+00	4.5426E-02
1.940	1.7047E+00	4.6055E-02
1.950	1.7024E+00	4.6692E-02
1.960	1.7001E+00	4.7337E-02
1.970	1.6978E+00	4.7991E-02
1.980	1.6956E+00	4.8653E-02
1.990	1.6933E+00	4.9324E-02
2.000	1.6909E+00	5.0003E-02
2.010	1.6886E+00	5.0691E-02
2.020	1.6863E+00	5.1388E-02
2.030	1.6839E+00	5.2094E-02
2.040	1.6816E+00	5.2809E-02
2.050	1.6792E+00	5.3533E-02
2.060	1.6768E+00	5.4266E-02
2.070	1.6744E+00	5.5008E-02
2.080	1.6720E+00	5.5759E-02
2.090	1.6696E+00	5.6520E-02
2.100	1.6672E+00	5.7290E-02
2.110	1.6647E+00	5.8069E-02
2.120	1.6623E+00	5.8858E-02
2.130	1.6598E+00	5.9656E-02
2.140	1.6573E+00	6.0464E-02
2.150	1.6548E+00	6.1282E-02
2.160	1.6523E+00	6.2109E-02
2.170	1.6498E+00	6.2947E-02
2.180	1.6473E+00	6.3794E-02
2.190	1.6448E+00	6.4652E-02
2.200	1.6422E+00	6.5519E-02
2.210	1.6397E+00	6.6397E-02
2.220	1.6371E+00	6.7286E-02
2.230	1.6345E+00	6.8184E-02
2.240	1.6319E+00	6.9093E-02
2.250	1.6293E+00	7.0013E-02
2.260	1.6267E+00	7.0943E-02
2.270	1.6241E+00	7.1884E-02
2.280	1.6214E+00	7.2836E-02
2.290	1.6188E+00	7.3799E-02
2.300	1.6161E+00	7.4773E-02
2.310	1.6134E+00	7.5757E-02
2.320	1.6107E+00	7.6754E-02
2.330	1.6080E+00	7.7761E-02
2.340	1.6053E+00	7.8780E-02
2.350	1.6026E+00	7.9810E-02
2.360	1.5999E+00	8.0852E-02
2.370	1.5971E+00	8.1906E-02
2.380	1.5943E+00	8.2971E-02
2.390	1.5916E+00	8.4049E-02
2.400	1.5888E+00	8.5138E-02
2.410	1.5860E+00	8.6240E-02
2.420	1.5832E+00	8.7354E-02
2.430	1.5803E+00	8.8480E-02
2.440	1.5775E+00	8.9618E-02
2.450	1.5747E+00	9.0770E-02
2.460	1.5718E+00	9.1933E-02
2.470	1.5689E+00	9.3110E-02
2.480	1.5660E+00	9.4300E-02
2.490	1.5631E+00	9.5502E-02
2.500	1.5602E+00	9.6718E-02
2.510	1.5573E+00	9.7947E-02
2.520	1.5544E+00	9.9189E-02
2.530	1.5514E+00	1.0045E-01
2.540	1.5484E+00	1.0171E-01
2.550	1.5455E+00	1.0300E-01
2.560	1.5425E+00	1.0430E-01
2.570	1.5395E+00	1.0561E-01
2.580	1.5365E+00	1.0693E-01
2.590	1.5334E+00	1.0827E-01
2.600	1.5304E+00	1.0963E-01
2.610	1.5274E+00	1.1099E-01
2.620	1.5243E+00	1.1238E-01
2.630	1.5212E+00	1.1377E-01
2.640	1.5181E+00	1.1519E-01
2.650	1.5150E+00	1.1662E-01
2.660	1.5119E+00	1.1806E-01
2.670	1.5088E+00	1.1952E-01
2.680	1.5057E+00	1.2099E-01
2.690	1.5025E+00	1.2248E-01
2.700	1.4993E+00	1.2399E-01
2.710	1.4962E+00	1.2551E-01
2.720	1.4930E+00	1.2705E-01
2.730	1.4898E+00	1.2860E-01
2.740	1.4866E+00	1.3017E-01
2.750	1.4833E+00	1.3176E-01
2.760	1.4801E+00	1.3336E-01
2.770	1.4768E+00	1.3499E-01
2.780	1.4736E+00	1.3662E-01
2.790	1.4703E+00	1.3828E-01
2.800	1.4670E+00	1.3995E-01
2.810	1.4637E+00	1.4164E-01
2.820	1.4604E+00	1.4335E-01
2.830	1.4571E+00	1.4508E-01
2.840	1.4537E+00	1.4682E-01
2.850	1.4504E+00	1.4859E-01
2.860	1.4470E+00	1.5037E-01
2.870	1.4437E+00	1.5217E-01
2.880	1.4403E+00	1.5399E-01
2.890	1.4369E+00	1.5582E-01
2.900	1.4335E+00	1.5768E-01
2.910	1.4300E+00	1.5956E-01
2.920	1.4266E+00	1.6145E-01
2.930	1.4231E+00	1.6337E-01
2.940	1.4197E+00	1.6531E-01
2.950	1.4162E+00	1.6726E-01
2.960	1.4127E+00	1.6924E-01
2.970	1.4092E+00	1.7124E-01
2.980	1.4057E+00	1.7326E-01
2.990	1.4022E+00	1.7530E-01
3.000	1.3987E+00	1.7736E-01
3.010	1.3951E+00	1.7944E-01
3.020	1.3916E+00	1.8155E-01
3.030	1.3880E+00	1.8367E-01
3.040	1.3844E+00	1.8582E-01
3.050	1.3808E+00	1.8799E-01
3.060	1.3772E+00	1.9019E-01
3.070	1.3736E+00	1.9241E-01
3.080	1.3700E+00	1.9465E-01
3.090	1.3664E+00	1.9691E-01
3.100	1.3627E+00	1.9920E-01
3.110	1.3591E+00	2.0151E-01
3.120	1.3554E+00	2.0384E-01
3.130	1.3517E+00	2.0620E-01
3.140	1.3480E+00	2.0859E-01
3.150	1.3443E+00	2.1099E-01
3.160	1.3406E+00	2.1343E-01
3.170	1.3369E+00	2.1589E-01
3.180	1.3332E+00	2.1837E-01
3.190	1.3294E+00	2.2088E-01
3.200	1.3257E+00	2.2342E-01
