Material: mixed crystals / ZnO-CdO / Aguilar-75
Optical constants. O. Aguilar, S. de Castro, M. P. F. Godoy, M. R. S. Dias. Optoelectronic characterization of Zn1-xCdxO thin films as an alternative to photonic crystals in organic solar cells, Opt. Mater. Express 9, 3638-3648 (2019) (Numerical data kindly provided by Mariama Rebello de Sousa Dias)
Comments: Zn0.75Cd0.25O (75% ZnO, 25% CdO) thin film.
wavelength (um)	n	k
0.300	1.6215E+00	2.8859E-01
0.310	1.6306E+00	3.3535E-01
0.320	1.6573E+00	3.7782E-01
0.330	1.6975E+00	4.0963E-01
0.340	1.7452E+00	4.2758E-01
0.350	1.7949E+00	4.3147E-01
0.360	1.8419E+00	4.2304E-01
0.370	1.8835E+00	4.0497E-01
0.380	1.9182E+00	3.8014E-01
0.390	1.9454E+00	3.5119E-01
0.400	1.9654E+00	3.2032E-01
0.410	1.9788E+00	2.8925E-01
0.420	1.9868E+00	2.5921E-01
0.430	1.9900E+00	2.3102E-01
0.440	1.9897E+00	2.0517E-01
0.450	1.9865E+00	1.8189E-01
0.460	1.9813E+00	1.6122E-01
0.470	1.9747E+00	1.4309E-01
0.480	1.9672E+00	1.2732E-01
0.490	1.9592E+00	1.1371E-01
0.500	1.9509E+00	1.0203E-01
0.510	1.9428E+00	9.2044E-02
0.520	1.9348E+00	8.3526E-02
0.530	1.9271E+00	7.6273E-02
0.540	1.9197E+00	7.0099E-02
0.550	1.9128E+00	6.4839E-02
0.560	1.9063E+00	6.0352E-02
0.570	1.9002E+00	5.6514E-02
0.580	1.8945E+00	5.3220E-02
0.590	1.8892E+00	5.0382E-02
0.600	1.8842E+00	4.7926E-02
0.610	1.8797E+00	4.5789E-02
0.620	1.8754E+00	4.3920E-02
0.630	1.8714E+00	4.2276E-02
0.640	1.8677E+00	4.0820E-02
0.650	1.8643E+00	3.9524E-02
0.660	1.8611E+00	3.8363E-02
0.670	1.8581E+00	3.7316E-02
0.680	1.8552E+00	3.6367E-02
0.690	1.8526E+00	3.5501E-02
0.700	1.8501E+00	3.4708E-02
0.710	1.8478E+00	3.3977E-02
0.720	1.8456E+00	3.3300E-02
0.730	1.8435E+00	3.2671E-02
0.740	1.8415E+00	3.2084E-02
0.750	1.8396E+00	3.1534E-02
0.760	1.8378E+00	3.1016E-02
0.770	1.8361E+00	3.0529E-02
0.780	1.8345E+00	3.0068E-02
0.790	1.8329E+00	2.9632E-02
0.800	1.8315E+00	2.9217E-02
0.810	1.8300E+00	2.8823E-02
0.820	1.8287E+00	2.8447E-02
0.830	1.8274E+00	2.8089E-02
0.840	1.8261E+00	2.7747E-02
0.850	1.8249E+00	2.7420E-02
0.860	1.8237E+00	2.7106E-02
0.870	1.8226E+00	2.6806E-02
0.880	1.8215E+00	2.6518E-02
0.890	1.8204E+00	2.6243E-02
0.900	1.8194E+00	2.5978E-02
0.910	1.8184E+00	2.5724E-02
0.920	1.8174E+00	2.5480E-02
0.930	1.8165E+00	2.5246E-02
0.940	1.8155E+00	2.5021E-02
0.950	1.8146E+00	2.4805E-02
0.960	1.8138E+00	2.4597E-02
0.970	1.8129E+00	2.4398E-02
0.980	1.8121E+00	2.4206E-02
0.990	1.8113E+00	2.4023E-02
1.000	1.8104E+00	2.3847E-02
1.010	1.8097E+00	2.3678E-02
1.020	1.8089E+00	2.3516E-02
1.030	1.8081E+00	2.3361E-02
1.040	1.8074E+00	2.3212E-02
1.050	1.8067E+00	2.3070E-02
1.060	1.8060E+00	2.2934E-02
1.070	1.8053E+00	2.2804E-02
1.080	1.8046E+00	2.2680E-02
1.090	1.8039E+00	2.2562E-02
1.100	1.8032E+00	2.2449E-02
1.110	1.8025E+00	2.2342E-02
1.120	1.8019E+00	2.2241E-02
1.130	1.8012E+00	2.2144E-02
1.140	1.8006E+00	2.2053E-02
1.150	1.8000E+00	2.1967E-02
1.160	1.7993E+00	2.1886E-02
1.170	1.7987E+00	2.1810E-02
1.180	1.7981E+00	2.1738E-02
1.190	1.7975E+00	2.1671E-02
1.200	1.7969E+00	2.1609E-02
1.210	1.7963E+00	2.1551E-02
1.220	1.7957E+00	2.1498E-02
1.230	1.7952E+00	2.1449E-02
1.240	1.7946E+00	2.1405E-02
1.250	1.7940E+00	2.1365E-02
1.260	1.7934E+00	2.1329E-02
1.270	1.7929E+00	2.1297E-02
1.280	1.7923E+00	2.1269E-02
1.290	1.7918E+00	2.1245E-02
1.300	1.7912E+00	2.1225E-02
1.310	1.7906E+00	2.1209E-02
1.320	1.7901E+00	2.1197E-02
1.330	1.7896E+00	2.1189E-02
1.340	1.7890E+00	2.1184E-02
1.350	1.7885E+00	2.1183E-02
1.360	1.7879E+00	2.1186E-02
1.370	1.7874E+00	2.1193E-02
1.380	1.7869E+00	2.1203E-02
1.390	1.7863E+00	2.1217E-02
1.400	1.7858E+00	2.1234E-02
1.410	1.7853E+00	2.1255E-02
1.420	1.7848E+00	2.1279E-02
1.430	1.7842E+00	2.1307E-02
1.440	1.7837E+00	2.1338E-02
1.450	1.7832E+00	2.1373E-02
1.460	1.7827E+00	2.1411E-02
1.470	1.7821E+00	2.1452E-02
1.480	1.7816E+00	2.1497E-02
1.490	1.7811E+00	2.1544E-02
1.500	1.7806E+00	2.1596E-02
1.510	1.7801E+00	2.1650E-02
1.520	1.7796E+00	2.1707E-02
1.530	1.7791E+00	2.1768E-02
1.540	1.7785E+00	2.1832E-02
1.550	1.7780E+00	2.1899E-02
1.560	1.7775E+00	2.1969E-02
1.570	1.7770E+00	2.2043E-02
1.580	1.7765E+00	2.2119E-02
1.590	1.7760E+00	2.2199E-02
1.600	1.7755E+00	2.2281E-02
1.610	1.7750E+00	2.2367E-02
1.620	1.7745E+00	2.2456E-02
1.630	1.7740E+00	2.2548E-02
1.640	1.7734E+00	2.2642E-02
1.650	1.7729E+00	2.2740E-02
1.660	1.7724E+00	2.2841E-02
1.670	1.7719E+00	2.2944E-02
1.680	1.7714E+00	2.3051E-02
1.690	1.7709E+00	2.3161E-02
1.700	1.7704E+00	2.3273E-02
1.710	1.7699E+00	2.3389E-02
1.720	1.7694E+00	2.3507E-02
1.730	1.7689E+00	2.3628E-02
1.740	1.7684E+00	2.3753E-02
1.750	1.7678E+00	2.3880E-02
1.760	1.7673E+00	2.4010E-02
1.770	1.7668E+00	2.4143E-02
1.780	1.7663E+00	2.4278E-02
1.790	1.7658E+00	2.4417E-02
1.800	1.7653E+00	2.4558E-02
1.810	1.7648E+00	2.4702E-02
1.820	1.7643E+00	2.4850E-02
1.830	1.7638E+00	2.5000E-02
1.840	1.7632E+00	2.5152E-02
1.850	1.7627E+00	2.5308E-02
1.860	1.7622E+00	2.5466E-02
1.870	1.7617E+00	2.5627E-02
1.880	1.7612E+00	2.5791E-02
1.890	1.7607E+00	2.5958E-02
1.900	1.7602E+00	2.6128E-02
1.910	1.7596E+00	2.6300E-02
1.920	1.7591E+00	2.6475E-02
1.930	1.7586E+00	2.6653E-02
1.940	1.7581E+00	2.6834E-02
1.950	1.7576E+00	2.7017E-02
1.960	1.7571E+00	2.7203E-02
1.970	1.7565E+00	2.7392E-02
1.980	1.7560E+00	2.7584E-02
1.990	1.7555E+00	2.7779E-02
2.000	1.7550E+00	2.7976E-02
2.010	1.7545E+00	2.8176E-02
2.020	1.7539E+00	2.8378E-02
2.030	1.7534E+00	2.8584E-02
2.040	1.7529E+00	2.8792E-02
2.050	1.7524E+00	2.9003E-02
2.060	1.7518E+00	2.9217E-02
2.070	1.7513E+00	2.9433E-02
2.080	1.7508E+00	2.9652E-02
2.090	1.7503E+00	2.9874E-02
2.100	1.7497E+00	3.0098E-02
2.110	1.7492E+00	3.0326E-02
2.120	1.7487E+00	3.0556E-02
2.130	1.7481E+00	3.0788E-02
2.140	1.7476E+00	3.1024E-02
2.150	1.7471E+00	3.1262E-02
2.160	1.7466E+00	3.1503E-02
2.170	1.7460E+00	3.1746E-02
2.180	1.7455E+00	3.1992E-02
2.190	1.7450E+00	3.2241E-02
2.200	1.7444E+00	3.2493E-02
2.210	1.7439E+00	3.2747E-02
2.220	1.7434E+00	3.3004E-02
2.230	1.7428E+00	3.3264E-02
2.240	1.7423E+00	3.3526E-02
2.250	1.7417E+00	3.3791E-02
2.260	1.7412E+00	3.4059E-02
2.270	1.7407E+00	3.4329E-02
2.280	1.7401E+00	3.4602E-02
2.290	1.7396E+00	3.4878E-02
2.300	1.7390E+00	3.5157E-02
2.310	1.7385E+00	3.5438E-02
2.320	1.7380E+00	3.5722E-02
2.330	1.7374E+00	3.6008E-02
2.340	1.7369E+00	3.6297E-02
2.350	1.7363E+00	3.6589E-02
2.360	1.7358E+00	3.6884E-02
2.370	1.7352E+00	3.7181E-02
2.380	1.7347E+00	3.7481E-02
2.390	1.7342E+00	3.7784E-02
2.400	1.7336E+00	3.8089E-02
2.410	1.7331E+00	3.8397E-02
2.420	1.7325E+00	3.8707E-02
2.430	1.7320E+00	3.9021E-02
2.440	1.7314E+00	3.9337E-02
2.450	1.7309E+00	3.9655E-02
2.460	1.7303E+00	3.9977E-02
2.470	1.7298E+00	4.0300E-02
2.480	1.7292E+00	4.0627E-02
2.490	1.7287E+00	4.0956E-02
2.500	1.7281E+00	4.1288E-02
2.510	1.7276E+00	4.1623E-02
2.520	1.7270E+00	4.1960E-02
2.530	1.7264E+00	4.2300E-02
2.540	1.7259E+00	4.2642E-02
2.550	1.7253E+00	4.2988E-02
2.560	1.7248E+00	4.3335E-02
2.570	1.7242E+00	4.3686E-02
2.580	1.7237E+00	4.4039E-02
2.590	1.7231E+00	4.4395E-02
2.600	1.7226E+00	4.4753E-02
2.610	1.7220E+00	4.5115E-02
2.620	1.7214E+00	4.5478E-02
2.630	1.7209E+00	4.5845E-02
2.640	1.7203E+00	4.6214E-02
2.650	1.7198E+00	4.6585E-02
2.660	1.7192E+00	4.6960E-02
2.670	1.7186E+00	4.7337E-02
2.680	1.7181E+00	4.7716E-02
2.690	1.7175E+00	4.8099E-02
2.700	1.7169E+00	4.8483E-02
2.710	1.7164E+00	4.8871E-02
2.720	1.7158E+00	4.9261E-02
2.730	1.7153E+00	4.9654E-02
2.740	1.7147E+00	5.0049E-02
2.750	1.7141E+00	5.0447E-02
2.760	1.7136E+00	5.0848E-02
2.770	1.7130E+00	5.1251E-02
2.780	1.7124E+00	5.1657E-02
2.790	1.7119E+00	5.2066E-02
2.800	1.7113E+00	5.2477E-02
2.810	1.7107E+00	5.2891E-02
2.820	1.7102E+00	5.3307E-02
2.830	1.7096E+00	5.3726E-02
2.840	1.7090E+00	5.4148E-02
2.850	1.7085E+00	5.4572E-02
2.860	1.7079E+00	5.4999E-02
2.870	1.7073E+00	5.5428E-02
2.880	1.7068E+00	5.5861E-02
2.890	1.7062E+00	5.6295E-02
2.900	1.7056E+00	5.6733E-02
2.910	1.7051E+00	5.7173E-02
2.920	1.7045E+00	5.7615E-02
2.930	1.7039E+00	5.8060E-02
2.940	1.7033E+00	5.8508E-02
2.950	1.7028E+00	5.8958E-02
2.960	1.7022E+00	5.9411E-02
2.970	1.7016E+00	5.9867E-02
2.980	1.7011E+00	6.0325E-02
2.990	1.7005E+00	6.0785E-02
3.000	1.6999E+00	6.1249E-02
3.010	1.6993E+00	6.1715E-02
3.020	1.6988E+00	6.2183E-02
3.030	1.6982E+00	6.2654E-02
3.040	1.6976E+00	6.3128E-02
3.050	1.6971E+00	6.3604E-02
3.060	1.6965E+00	6.4083E-02
3.070	1.6959E+00	6.4564E-02
3.080	1.6953E+00	6.5048E-02
3.090	1.6948E+00	6.5534E-02
3.100	1.6942E+00	6.6023E-02
3.110	1.6936E+00	6.6515E-02
3.120	1.6931E+00	6.7009E-02
3.130	1.6925E+00	6.7506E-02
3.140	1.6919E+00	6.8005E-02
3.150	1.6913E+00	6.8507E-02
3.160	1.6908E+00	6.9011E-02
3.170	1.6902E+00	6.9518E-02
3.180	1.6896E+00	7.0028E-02
3.190	1.6890E+00	7.0540E-02
3.200	1.6885E+00	7.1054E-02
