Material: perovskite / 2D HOIP / Song-RP1
Optical constants. B. Song, J. Hou, H. Wang, S. Sidhik, J. Miao, H. Gu, H. Zhang, S. Liu, Z. Fakhraai, J. Even, J.-C. Blancon, A. D. Mohite, D. Jariwala. Determination of dielectric functions and exciton oscillator strength of two-dimensional hybrid perovskites, ACS Materials Lett. 3, 148-159 (2021)(Numerical data kindly provided by Baokun Song)
Comments: Two-dimensional (2D) hybrid organic−inorganic perovskite (HOIP) semiconductor. Ruddlesden–Popper (RP) phase. (BA)2(MA)n-1PbnI3n-1,where BA = CH3(CH2)3NH3, MA = CH3NH3, and n determines the thickness of the lead−iodide perovskite layer.n = 1
Specs: {"n_absolute": true, "wavelength_vacuum": true, "substrate": "glass"}
wavelength (um)	n	k
3.70914E-01	1.91593E+00	1.08456E+00
3.74077E-01	1.99906E+00	1.07604E+00
3.77240E-01	2.08108E+00	1.05387E+00
3.80405E-01	2.15862E+00	1.01821E+00
3.83571E-01	2.22837E+00	9.70350E-01
3.86736E-01	2.28761E+00	9.12650E-01
3.89902E-01	2.33456E+00	8.48180E-01
3.93069E-01	2.36860E+00	7.80290E-01
3.96237E-01	2.39016E+00	7.12070E-01
3.99404E-01	2.40049E+00	6.46080E-01
4.02574E-01	2.40126E+00	5.84150E-01
4.05742E-01	2.39430E+00	5.27380E-01
4.08911E-01	2.38137E+00	4.76330E-01
4.12082E-01	2.36397E+00	4.31090E-01
4.15252E-01	2.34339E+00	3.91480E-01
4.18423E-01	2.32060E+00	3.57130E-01
4.21595E-01	2.29636E+00	3.27630E-01
4.24766E-01	2.27121E+00	3.02520E-01
4.27939E-01	2.24553E+00	2.81370E-01
4.31111E-01	2.21957E+00	2.63800E-01
4.34284E-01	2.19345E+00	2.49470E-01
4.37459E-01	2.16723E+00	2.38140E-01
4.40632E-01	2.14088E+00	2.29620E-01
4.43807E-01	2.11436E+00	2.23830E-01
4.46983E-01	2.08755E+00	2.20810E-01
4.50158E-01	2.06037E+00	2.20790E-01
4.53334E-01	2.03282E+00	2.24210E-01
4.56511E-01	2.00530E+00	2.31890E-01
4.59688E-01	1.97924E+00	2.44760E-01
4.62864E-01	1.95805E+00	2.62320E-01
4.66041E-01	1.94465E+00	2.78660E-01
4.69219E-01	1.93203E+00	2.85590E-01
4.72398E-01	1.90817E+00	2.88030E-01
4.75576E-01	1.87262E+00	2.96650E-01
4.78755E-01	1.82958E+00	3.15740E-01
4.81934E-01	1.78088E+00	3.46870E-01
4.85113E-01	1.72645E+00	3.92840E-01
4.88294E-01	1.66592E+00	4.59280E-01
4.91474E-01	1.60054E+00	5.56250E-01
4.94655E-01	1.53718E+00	7.00130E-01
4.97837E-01	1.49705E+00	9.13180E-01
5.01017E-01	1.52830E+00	1.21459E+00
5.04198E-01	1.71832E+00	1.59997E+00
5.07379E-01	2.22033E+00	1.98120E+00
5.10561E-01	3.12331E+00	1.93763E+00
5.13743E-01	3.64833E+00	1.13246E+00
5.16926E-01	3.47670E+00	4.95050E-01
5.20109E-01	3.20752E+00	2.17450E-01
5.23292E-01	2.99998E+00	9.92100E-02
5.26474E-01	2.84972E+00	4.52300E-02
5.29659E-01	2.73898E+00	1.94600E-02
5.32844E-01	2.65502E+00	7.21000E-03
5.36027E-01	2.58969E+00	1.90000E-03
5.39212E-01	2.53789E+00	3.20000E-04
5.42396E-01	2.49659E+00	2.65000E-04
5.45580E-01	2.46248E+00	2.38000E-04
5.48765E-01	2.43350E+00	2.13000E-04
5.51949E-01	2.40843E+00	1.91000E-04
5.55134E-01	2.38643E+00	1.71000E-04
5.58319E-01	2.36691E+00	1.53000E-04
5.61505E-01	2.34943E+00	1.37000E-04
5.64691E-01	2.33365E+00	1.22000E-04
5.67875E-01	2.31931E+00	1.09000E-04
5.71061E-01	2.30620E+00	9.80000E-05
5.74248E-01	2.29416E+00	8.70000E-05
5.77433E-01	2.28304E+00	7.80000E-05
5.80619E-01	2.27273E+00	6.90000E-05
5.83807E-01	2.26313E+00	6.10000E-05
5.86994E-01	2.25418E+00	5.40000E-05
5.90179E-01	2.24579E+00	4.80000E-05
5.93365E-01	2.23792E+00	4.20000E-05
5.96551E-01	2.23051E+00	3.70000E-05
5.99737E-01	2.22352E+00	3.30000E-05
6.02925E-01	2.21691E+00	2.80000E-05
6.06111E-01	2.21064E+00	2.50000E-05
6.09298E-01	2.20470E+00	2.10000E-05
6.12485E-01	2.19905E+00	1.80000E-05
6.15673E-01	2.19367E+00	1.60000E-05
6.18860E-01	2.18853E+00	1.30000E-05
6.22045E-01	2.18363E+00	1.10000E-05
6.25232E-01	2.17895E+00	9.00000E-06
6.28420E-01	2.17446E+00	7.00000E-06
6.31606E-01	2.17016E+00	6.00000E-06
6.34794E-01	2.16603E+00	5.00000E-06
6.37979E-01	2.16207E+00	4.00000E-06
6.41166E-01	2.15826E+00	3.00000E-06
6.44355E-01	2.15459E+00	2.00000E-06
6.47539E-01	2.15106E+00	1.00000E-06
6.50726E-01	2.14765E+00	1.00000E-06
6.53915E-01	2.14437E+00	0.00000E+00
6.57100E-01	2.14119E+00	0.00000E+00
6.60288E-01	2.13813E+00	0.00000E+00
6.63471E-01	2.13517E+00	0.00000E+00
6.66657E-01	2.13230E+00	0.00000E+00
6.69844E-01	2.12952E+00	0.00000E+00
6.73030E-01	2.12683E+00	0.00000E+00
6.76216E-01	2.12423E+00	0.00000E+00
6.79403E-01	2.12170E+00	0.00000E+00
6.82590E-01	2.11925E+00	0.00000E+00
6.85772E-01	2.11687E+00	0.00000E+00
6.88958E-01	2.11455E+00	0.00000E+00
6.92143E-01	2.11231E+00	0.00000E+00
6.95329E-01	2.11012E+00	0.00000E+00
6.98514E-01	2.10799E+00	0.00000E+00
7.01697E-01	2.10593E+00	0.00000E+00
7.04884E-01	2.10391E+00	0.00000E+00
7.08068E-01	2.10195E+00	0.00000E+00
7.11253E-01	2.10004E+00	0.00000E+00
7.14433E-01	2.09818E+00	0.00000E+00
7.17617E-01	2.09636E+00	0.00000E+00
7.20801E-01	2.09459E+00	0.00000E+00
7.23987E-01	2.09286E+00	0.00000E+00
7.27167E-01	2.09118E+00	0.00000E+00
7.30350E-01	2.08953E+00	0.00000E+00
7.33534E-01	2.08792E+00	0.00000E+00
7.36716E-01	2.08635E+00	0.00000E+00
7.39899E-01	2.08481E+00	0.00000E+00
7.43079E-01	2.08331E+00	0.00000E+00
7.46259E-01	2.08185E+00	0.00000E+00
7.49444E-01	2.08041E+00	0.00000E+00
7.52624E-01	2.07901E+00	0.00000E+00
7.55803E-01	2.07763E+00	0.00000E+00
7.58982E-01	2.07628E+00	0.00000E+00
7.62164E-01	2.07497E+00	0.00000E+00
7.65344E-01	2.07368E+00	0.00000E+00
7.68522E-01	2.07241E+00	0.00000E+00
7.71699E-01	2.07117E+00	0.00000E+00
7.74882E-01	2.06996E+00	0.00000E+00
7.78057E-01	2.06877E+00	0.00000E+00
7.81234E-01	2.06760E+00	0.00000E+00
7.84412E-01	2.06646E+00	0.00000E+00
7.87591E-01	2.06534E+00	0.00000E+00
7.90766E-01	2.06424E+00	0.00000E+00
7.93941E-01	2.06316E+00	0.00000E+00
7.97121E-01	2.06209E+00	0.00000E+00
8.00296E-01	2.06105E+00	0.00000E+00
8.03470E-01	2.06003E+00	0.00000E+00
8.06643E-01	2.05903E+00	0.00000E+00
8.09820E-01	2.05804E+00	0.00000E+00
8.12990E-01	2.05707E+00	0.00000E+00
8.16163E-01	2.05612E+00	0.00000E+00
8.19335E-01	2.05518E+00	0.00000E+00
8.22509E-01	2.05427E+00	0.00000E+00
8.25681E-01	2.05336E+00	0.00000E+00
8.28854E-01	2.05247E+00	0.00000E+00
8.32025E-01	2.05160E+00	0.00000E+00
8.35192E-01	2.05074E+00	0.00000E+00
8.38366E-01	2.04989E+00	0.00000E+00
8.41535E-01	2.04906E+00	0.00000E+00
8.44700E-01	2.04824E+00	0.00000E+00
8.47871E-01	2.04744E+00	0.00000E+00
8.51037E-01	2.04664E+00	0.00000E+00
8.54203E-01	2.04586E+00	0.00000E+00
8.57375E-01	2.04509E+00	0.00000E+00
8.60541E-01	2.04434E+00	0.00000E+00
8.63706E-01	2.04359E+00	0.00000E+00
8.66871E-01	2.04286E+00	0.00000E+00
8.70034E-01	2.04213E+00	0.00000E+00
8.73196E-01	2.04142E+00	0.00000E+00
8.76362E-01	2.04072E+00	0.00000E+00
8.79526E-01	2.04003E+00	0.00000E+00
8.82689E-01	2.03934E+00	0.00000E+00
8.85848E-01	2.03867E+00	0.00000E+00
8.89005E-01	2.03801E+00	0.00000E+00
8.92172E-01	2.03735E+00	0.00000E+00
8.95329E-01	2.03671E+00	0.00000E+00
8.98488E-01	2.03607E+00	0.00000E+00
9.01644E-01	2.03545E+00	0.00000E+00
9.04803E-01	2.03483E+00	0.00000E+00
9.07957E-01	2.03422E+00	0.00000E+00
9.11113E-01	2.03362E+00	0.00000E+00
9.14270E-01	2.03302E+00	0.00000E+00
9.17430E-01	2.03244E+00	0.00000E+00
9.20584E-01	2.03186E+00	0.00000E+00
9.23732E-01	2.03129E+00	0.00000E+00
9.26888E-01	2.03072E+00	0.00000E+00
9.30037E-01	2.03017E+00	0.00000E+00
9.33187E-01	2.02962E+00	0.00000E+00
9.36338E-01	2.02908E+00	0.00000E+00
9.39488E-01	2.02854E+00	0.00000E+00
9.42638E-01	2.02801E+00	0.00000E+00
9.45787E-01	2.02749E+00	0.00000E+00
9.48936E-01	2.02697E+00	0.00000E+00
9.52084E-01	2.02646E+00	0.00000E+00
9.55231E-01	2.02596E+00	0.00000E+00
9.58376E-01	2.02546E+00	0.00000E+00
9.61520E-01	2.02496E+00	0.00000E+00
9.64662E-01	2.02448E+00	0.00000E+00
9.67802E-01	2.02400E+00	0.00000E+00
9.70948E-01	2.02352E+00	0.00000E+00
9.74091E-01	2.02305E+00	0.00000E+00
9.77231E-01	2.02259E+00	0.00000E+00
9.80368E-01	2.02213E+00	0.00000E+00
9.83510E-01	2.02167E+00	0.00000E+00
9.86648E-01	2.02122E+00	0.00000E+00
9.89783E-01	2.02078E+00	0.00000E+00
9.92914E-01	2.02034E+00	0.00000E+00
9.96049E-01	2.01990E+00	0.00000E+00
9.99188E-01	2.01947E+00	0.00000E+00
1.01641E+00	2.01719E+00	0.00000E+00
1.02322E+00	2.01632E+00	0.00000E+00
1.03003E+00	2.01547E+00	0.00000E+00
1.03684E+00	2.01463E+00	0.00000E+00
1.04366E+00	2.01381E+00	0.00000E+00
1.05047E+00	2.01301E+00	0.00000E+00
1.05729E+00	2.01223E+00	0.00000E+00
1.06411E+00	2.01146E+00	0.00000E+00
1.07093E+00	2.01070E+00	0.00000E+00
1.07775E+00	2.00996E+00	0.00000E+00
1.08457E+00	2.00923E+00	0.00000E+00
1.09140E+00	2.00852E+00	0.00000E+00
1.09823E+00	2.00781E+00	0.00000E+00
1.10506E+00	2.00712E+00	0.00000E+00
1.11189E+00	2.00645E+00	0.00000E+00
1.11872E+00	2.00578E+00	0.00000E+00
1.12554E+00	2.00512E+00	0.00000E+00
1.13238E+00	2.00448E+00	0.00000E+00
1.13922E+00	2.00384E+00	0.00000E+00
1.14605E+00	2.00322E+00	0.00000E+00
1.15289E+00	2.00261E+00	0.00000E+00
1.15973E+00	2.00200E+00	0.00000E+00
1.16657E+00	2.00140E+00	0.00000E+00
1.17340E+00	2.00081E+00	0.00000E+00
1.18025E+00	2.00024E+00	0.00000E+00
1.18709E+00	1.99967E+00	0.00000E+00
1.19394E+00	1.99910E+00	0.00000E+00
1.20079E+00	1.99855E+00	0.00000E+00
1.20763E+00	1.99800E+00	0.00000E+00
1.21448E+00	1.99746E+00	0.00000E+00
1.22134E+00	1.99693E+00	0.00000E+00
1.22819E+00	1.99640E+00	0.00000E+00
1.23504E+00	1.99588E+00	0.00000E+00
1.24190E+00	1.99537E+00	0.00000E+00
1.24876E+00	1.99486E+00	0.00000E+00
1.25561E+00	1.99436E+00	0.00000E+00
1.26248E+00	1.99386E+00	0.00000E+00
1.26933E+00	1.99337E+00	0.00000E+00
1.27620E+00	1.99289E+00	0.00000E+00
1.28306E+00	1.99241E+00	0.00000E+00
1.28993E+00	1.99194E+00	0.00000E+00
1.29680E+00	1.99147E+00	0.00000E+00
1.30366E+00	1.99100E+00	0.00000E+00
1.31053E+00	1.99054E+00	0.00000E+00
1.31740E+00	1.99009E+00	0.00000E+00
1.32428E+00	1.98964E+00	0.00000E+00
1.33115E+00	1.98920E+00	0.00000E+00
1.33803E+00	1.98875E+00	0.00000E+00
1.34489E+00	1.98832E+00	0.00000E+00
1.35178E+00	1.98788E+00	0.00000E+00
1.35866E+00	1.98745E+00	0.00000E+00
1.36554E+00	1.98703E+00	0.00000E+00
1.37242E+00	1.98661E+00	0.00000E+00
1.37930E+00	1.98619E+00	0.00000E+00
1.38618E+00	1.98577E+00	0.00000E+00
1.39307E+00	1.98536E+00	0.00000E+00
1.39995E+00	1.98495E+00	0.00000E+00
1.40685E+00	1.98455E+00	0.00000E+00
1.41375E+00	1.98415E+00	0.00000E+00
1.42063E+00	1.98375E+00	0.00000E+00
1.42752E+00	1.98335E+00	0.00000E+00
1.43442E+00	1.98296E+00	0.00000E+00
1.44131E+00	1.98257E+00	0.00000E+00
1.44821E+00	1.98218E+00	0.00000E+00
1.45511E+00	1.98180E+00	0.00000E+00
1.46201E+00	1.98141E+00	0.00000E+00
1.46890E+00	1.98103E+00	0.00000E+00
1.47581E+00	1.98066E+00	0.00000E+00
1.48271E+00	1.98028E+00	0.00000E+00
1.48962E+00	1.97991E+00	0.00000E+00
1.49653E+00	1.97953E+00	0.00000E+00
1.50344E+00	1.97917E+00	0.00000E+00
1.51034E+00	1.97880E+00	0.00000E+00
1.51726E+00	1.97843E+00	0.00000E+00
1.52418E+00	1.97807E+00	0.00000E+00
1.53108E+00	1.97771E+00	0.00000E+00
1.53800E+00	1.97735E+00	0.00000E+00
1.54492E+00	1.97699E+00	0.00000E+00
1.55184E+00	1.97663E+00	0.00000E+00
1.55877E+00	1.97628E+00	0.00000E+00
1.56567E+00	1.97593E+00	0.00000E+00
1.57261E+00	1.97558E+00	0.00000E+00
1.57952E+00	1.97523E+00	0.00000E+00
1.58645E+00	1.97488E+00	0.00000E+00
1.59338E+00	1.97453E+00	0.00000E+00
1.60031E+00	1.97419E+00	0.00000E+00
1.60724E+00	1.97384E+00	0.00000E+00
1.61417E+00	1.97350E+00	0.00000E+00
1.62109E+00	1.97316E+00	0.00000E+00
1.62803E+00	1.97282E+00	0.00000E+00
1.63496E+00	1.97248E+00	0.00000E+00
1.64189E+00	1.97214E+00	0.00000E+00
1.64884E+00	1.97180E+00	0.00000E+00
1.65577E+00	1.97147E+00	0.00000E+00
1.66272E+00	1.97113E+00	0.00000E+00
1.66966E+00	1.97080E+00	0.00000E+00
1.67659E+00	1.97046E+00	0.00000E+00
1.68354E+00	1.97013E+00	0.00000E+00
