Material: perovskite / 2D HOIP / Song-RP5
Optical constants. B. Song, J. Hou, H. Wang, S. Sidhik, J. Miao, H. Gu, H. Zhang, S. Liu, Z. Fakhraai, J. Even, J.-C. Blancon, A. D. Mohite, D. Jariwala. Determination of dielectric functions and exciton oscillator strength of two-dimensional hybrid perovskites, ACS Materials Lett. 3, 148-159 (2021)(Numerical data kindly provided by Baokun Song)
Comments: Two-dimensional (2D) hybrid organic−inorganic perovskite (HOIP) semiconductor. Ruddlesden–Popper (RP) phase. (BA)2(MA)n-1PbnI3n-1,where BA = CH3(CH2)3NH3, MA = CH3NH3, and n determines the thickness of the lead−iodide perovskite layer.n = 5
Specs: {"n_absolute": true, "wavelength_vacuum": true, "substrate": "glass"}
wavelength (um)	n	k
3.70914E-01	2.22572E+00	1.09666E+00
3.74077E-01	2.21384E+00	1.09983E+00
3.77240E-01	2.21503E+00	1.10285E+00
3.80405E-01	2.22510E+00	1.10319E+00
3.83571E-01	2.24081E+00	1.09975E+00
3.86736E-01	2.25967E+00	1.09226E+00
3.89902E-01	2.27979E+00	1.08091E+00
3.93069E-01	2.29976E+00	1.06620E+00
3.96237E-01	2.31860E+00	1.04877E+00
3.99404E-01	2.33565E+00	1.02935E+00
4.02574E-01	2.35052E+00	1.00865E+00
4.05742E-01	2.36306E+00	9.87360E-01
4.08911E-01	2.37331E+00	9.66060E-01
4.12082E-01	2.38143E+00	9.45270E-01
4.15252E-01	2.38765E+00	9.25370E-01
4.18423E-01	2.39227E+00	9.06660E-01
4.21595E-01	2.39561E+00	8.89350E-01
4.24766E-01	2.39802E+00	8.73530E-01
4.27939E-01	2.39980E+00	8.59270E-01
4.31111E-01	2.40126E+00	8.46530E-01
4.34284E-01	2.40266E+00	8.35260E-01
4.37459E-01	2.40423E+00	8.25330E-01
4.40632E-01	2.40619E+00	8.16620E-01
4.43807E-01	2.40870E+00	8.08970E-01
4.46983E-01	2.41190E+00	8.02210E-01
4.50158E-01	2.41588E+00	7.96140E-01
4.53334E-01	2.42071E+00	7.90590E-01
4.56511E-01	2.42644E+00	7.85360E-01
4.59688E-01	2.43306E+00	7.80270E-01
4.62864E-01	2.44057E+00	7.75150E-01
4.66041E-01	2.44892E+00	7.69820E-01
4.69219E-01	2.45804E+00	7.64140E-01
4.72398E-01	2.46786E+00	7.57970E-01
4.75576E-01	2.47827E+00	7.51200E-01
4.78755E-01	2.48918E+00	7.43730E-01
4.81934E-01	2.50048E+00	7.35460E-01
4.85113E-01	2.51204E+00	7.26320E-01
4.88294E-01	2.52375E+00	7.16270E-01
4.91474E-01	2.53547E+00	7.05240E-01
4.94655E-01	2.54708E+00	6.93200E-01
4.97837E-01	2.55843E+00	6.80120E-01
5.01017E-01	2.56937E+00	6.65990E-01
5.04198E-01	2.57972E+00	6.50800E-01
5.07379E-01	2.58929E+00	6.34600E-01
5.10561E-01	2.59788E+00	6.17440E-01
5.13743E-01	2.60527E+00	5.99440E-01
5.16926E-01	2.61128E+00	5.80770E-01
5.20109E-01	2.61574E+00	5.61680E-01
5.23292E-01	2.61852E+00	5.42440E-01
5.26474E-01	2.61958E+00	5.23400E-01
5.29659E-01	2.61897E+00	5.04880E-01
5.32844E-01	2.61682E+00	4.87240E-01
5.36027E-01	2.61333E+00	4.70780E-01
5.39212E-01	2.60881E+00	4.55750E-01
5.42396E-01	2.60362E+00	4.42340E-01
5.45580E-01	2.59818E+00	4.30670E-01
5.48765E-01	2.59299E+00	4.20740E-01
5.51949E-01	2.58858E+00	4.12380E-01
5.55134E-01	2.58548E+00	4.05250E-01
5.58319E-01	2.58417E+00	3.98700E-01
5.61505E-01	2.58480E+00	3.91840E-01
5.64691E-01	2.58710E+00	3.83610E-01
5.67875E-01	2.59015E+00	3.73170E-01
5.71061E-01	2.59266E+00	3.60250E-01
5.74248E-01	2.59337E+00	3.45370E-01
5.77433E-01	2.59155E+00	3.29590E-01
5.80619E-01	2.58715E+00	3.14080E-01
5.83807E-01	2.58064E+00	2.99710E-01
5.86994E-01	2.57271E+00	2.86890E-01
5.90179E-01	2.56388E+00	2.75730E-01
5.93365E-01	2.55461E+00	2.66180E-01
5.96551E-01	2.54524E+00	2.58120E-01
5.99737E-01	2.53599E+00	2.51370E-01
6.02925E-01	2.52701E+00	2.45780E-01
6.06111E-01	2.51839E+00	2.41180E-01
6.09298E-01	2.51019E+00	2.37460E-01
6.12485E-01	2.50246E+00	2.34500E-01
6.15673E-01	2.49521E+00	2.32190E-01
6.18860E-01	2.48847E+00	2.30440E-01
6.22045E-01	2.48223E+00	2.29150E-01
6.25232E-01	2.47648E+00	2.28190E-01
6.28420E-01	2.47115E+00	2.27450E-01
6.31606E-01	2.46612E+00	2.26790E-01
6.34794E-01	2.46117E+00	2.26090E-01
6.37979E-01	2.45589E+00	2.25330E-01
6.41166E-01	2.44973E+00	2.24660E-01
6.44355E-01	2.44199E+00	2.24670E-01
6.47539E-01	2.43208E+00	2.26590E-01
6.50726E-01	2.41996E+00	2.32430E-01
6.53915E-01	2.40691E+00	2.44770E-01
6.57100E-01	2.39606E+00	2.65970E-01
6.60288E-01	2.39262E+00	2.96980E-01
6.63471E-01	2.40376E+00	3.35650E-01
6.66657E-01	2.43509E+00	3.73750E-01
6.69844E-01	2.48740E+00	4.00640E-01
6.73030E-01	2.55468E+00	4.03690E-01
6.76216E-01	2.62128E+00	3.75730E-01
6.79403E-01	2.66976E+00	3.22800E-01
6.82590E-01	2.69238E+00	2.60330E-01
6.85772E-01	2.69285E+00	2.01890E-01
6.88958E-01	2.67943E+00	1.53790E-01
6.92143E-01	2.65927E+00	1.16710E-01
6.95329E-01	2.63686E+00	8.89400E-02
6.98514E-01	2.61456E+00	6.82900E-02
7.01697E-01	2.59347E+00	5.28800E-02
7.04884E-01	2.57396E+00	4.12900E-02
7.08068E-01	2.55610E+00	3.24800E-02
7.11253E-01	2.53980E+00	2.57000E-02
7.14433E-01	2.52493E+00	2.04300E-02
7.17617E-01	2.51131E+00	1.62800E-02
7.20801E-01	2.49881E+00	1.30000E-02
7.23987E-01	2.48729E+00	1.03700E-02
7.27167E-01	2.47663E+00	8.27000E-03
7.30350E-01	2.46673E+00	6.57000E-03
7.33534E-01	2.45751E+00	5.20000E-03
7.36716E-01	2.44889E+00	4.10000E-03
7.39899E-01	2.44081E+00	3.21000E-03
7.43079E-01	2.43322E+00	2.50000E-03
7.46259E-01	2.42607E+00	1.95000E-03
7.49444E-01	2.41932E+00	1.52000E-03
7.52624E-01	2.41296E+00	1.20000E-03
7.55803E-01	2.40696E+00	9.57000E-04
7.58982E-01	2.40128E+00	7.49000E-04
7.62164E-01	2.39587E+00	5.73000E-04
7.65344E-01	2.39072E+00	4.27000E-04
7.68522E-01	2.38578E+00	3.12000E-04
7.71699E-01	2.38106E+00	2.26000E-04
7.74882E-01	2.37654E+00	1.68000E-04
7.78057E-01	2.37222E+00	1.27000E-04
7.81234E-01	2.36807E+00	9.20000E-05
7.84412E-01	2.36408E+00	6.30000E-05
7.87591E-01	2.36023E+00	4.00000E-05
7.90766E-01	2.35652E+00	2.20000E-05
7.93941E-01	2.35294E+00	1.00000E-05
7.97121E-01	2.34948E+00	2.00000E-06
8.00296E-01	2.34613E+00	0.00000E+00
8.03470E-01	2.34290E+00	0.00000E+00
8.06643E-01	2.33977E+00	0.00000E+00
8.09820E-01	2.33673E+00	0.00000E+00
8.12990E-01	2.33378E+00	0.00000E+00
8.16163E-01	2.33092E+00	0.00000E+00
8.19335E-01	2.32814E+00	0.00000E+00
8.22509E-01	2.32544E+00	0.00000E+00
8.25681E-01	2.32281E+00	0.00000E+00
8.28854E-01	2.32025E+00	0.00000E+00
8.32025E-01	2.31776E+00	0.00000E+00
8.35192E-01	2.31533E+00	0.00000E+00
8.38366E-01	2.31296E+00	0.00000E+00
8.41535E-01	2.31065E+00	0.00000E+00
8.44700E-01	2.30840E+00	0.00000E+00
8.47871E-01	2.30620E+00	0.00000E+00
8.51037E-01	2.30405E+00	0.00000E+00
8.54203E-01	2.30196E+00	0.00000E+00
8.57375E-01	2.29991E+00	0.00000E+00
8.60541E-01	2.29790E+00	0.00000E+00
8.63706E-01	2.29595E+00	0.00000E+00
8.66871E-01	2.29403E+00	0.00000E+00
8.70034E-01	2.29216E+00	0.00000E+00
8.73196E-01	2.29032E+00	0.00000E+00
8.76362E-01	2.28853E+00	0.00000E+00
8.79526E-01	2.28677E+00	0.00000E+00
8.82689E-01	2.28505E+00	0.00000E+00
8.85848E-01	2.28337E+00	0.00000E+00
8.89005E-01	2.28172E+00	0.00000E+00
8.92172E-01	2.28010E+00	0.00000E+00
8.95329E-01	2.27851E+00	0.00000E+00
8.98488E-01	2.27696E+00	0.00000E+00
9.01644E-01	2.27543E+00	0.00000E+00
9.04803E-01	2.27393E+00	0.00000E+00
9.07957E-01	2.27247E+00	0.00000E+00
9.11113E-01	2.27103E+00	0.00000E+00
9.14270E-01	2.26961E+00	0.00000E+00
9.17430E-01	2.26823E+00	0.00000E+00
9.20584E-01	2.26687E+00	0.00000E+00
9.23732E-01	2.26553E+00	0.00000E+00
9.26888E-01	2.26422E+00	0.00000E+00
9.30037E-01	2.26293E+00	0.00000E+00
9.33187E-01	2.26166E+00	0.00000E+00
9.36338E-01	2.26042E+00	0.00000E+00
9.39488E-01	2.25920E+00	0.00000E+00
9.42638E-01	2.25800E+00	0.00000E+00
9.45787E-01	2.25682E+00	0.00000E+00
9.48936E-01	2.25566E+00	0.00000E+00
9.52084E-01	2.25452E+00	0.00000E+00
9.55231E-01	2.25340E+00	0.00000E+00
9.58376E-01	2.25230E+00	0.00000E+00
9.61520E-01	2.25121E+00	0.00000E+00
9.64662E-01	2.25015E+00	0.00000E+00
9.67802E-01	2.24910E+00	0.00000E+00
9.70948E-01	2.24807E+00	0.00000E+00
9.74091E-01	2.24706E+00	0.00000E+00
9.77231E-01	2.24606E+00	0.00000E+00
9.80368E-01	2.24507E+00	0.00000E+00
9.83510E-01	2.24411E+00	0.00000E+00
9.86648E-01	2.24316E+00	0.00000E+00
9.89783E-01	2.24222E+00	0.00000E+00
9.92914E-01	2.24130E+00	0.00000E+00
9.96049E-01	2.24039E+00	0.00000E+00
9.99188E-01	2.23950E+00	0.00000E+00
1.01641E+00	2.23483E+00	0.00000E+00
1.02322E+00	2.23309E+00	0.00000E+00
1.03003E+00	2.23140E+00	0.00000E+00
1.03684E+00	2.22976E+00	0.00000E+00
1.04366E+00	2.22817E+00	0.00000E+00
1.05047E+00	2.22664E+00	0.00000E+00
1.05729E+00	2.22515E+00	0.00000E+00
1.06411E+00	2.22370E+00	0.00000E+00
1.07093E+00	2.22230E+00	0.00000E+00
1.07775E+00	2.22093E+00	0.00000E+00
1.08457E+00	2.21961E+00	0.00000E+00
1.09140E+00	2.21833E+00	0.00000E+00
1.09823E+00	2.21708E+00	0.00000E+00
1.10506E+00	2.21587E+00	0.00000E+00
1.11189E+00	2.21470E+00	0.00000E+00
1.11872E+00	2.21356E+00	0.00000E+00
1.12554E+00	2.21245E+00	0.00000E+00
1.13238E+00	2.21137E+00	0.00000E+00
1.13922E+00	2.21032E+00	0.00000E+00
1.14605E+00	2.20931E+00	0.00000E+00
1.15289E+00	2.20832E+00	0.00000E+00
1.15973E+00	2.20736E+00	0.00000E+00
1.16657E+00	2.20642E+00	0.00000E+00
1.17340E+00	2.20551E+00	0.00000E+00
1.18025E+00	2.20463E+00	0.00000E+00
1.18709E+00	2.20377E+00	0.00000E+00
1.19394E+00	2.20294E+00	0.00000E+00
1.20079E+00	2.20213E+00	0.00000E+00
1.20763E+00	2.20134E+00	0.00000E+00
1.21448E+00	2.20057E+00	0.00000E+00
1.22134E+00	2.19983E+00	0.00000E+00
1.22819E+00	2.19910E+00	0.00000E+00
1.23504E+00	2.19840E+00	0.00000E+00
1.24190E+00	2.19771E+00	0.00000E+00
1.24876E+00	2.19704E+00	0.00000E+00
1.25561E+00	2.19639E+00	0.00000E+00
1.26248E+00	2.19577E+00	0.00000E+00
1.26933E+00	2.19515E+00	0.00000E+00
1.27620E+00	2.19456E+00	0.00000E+00
1.28306E+00	2.19398E+00	0.00000E+00
1.28993E+00	2.19342E+00	0.00000E+00
1.29680E+00	2.19287E+00	0.00000E+00
1.30366E+00	2.19234E+00	0.00000E+00
1.31053E+00	2.19183E+00	0.00000E+00
1.31740E+00	2.19133E+00	0.00000E+00
1.32428E+00	2.19084E+00	0.00000E+00
1.33115E+00	2.19037E+00	0.00000E+00
1.33803E+00	2.18991E+00	0.00000E+00
1.34489E+00	2.18946E+00	0.00000E+00
1.35178E+00	2.18903E+00	0.00000E+00
1.35866E+00	2.18861E+00	0.00000E+00
1.36554E+00	2.18821E+00	0.00000E+00
1.37242E+00	2.18781E+00	0.00000E+00
1.37930E+00	2.18743E+00	0.00000E+00
1.38618E+00	2.18706E+00	0.00000E+00
1.39307E+00	2.18670E+00	0.00000E+00
1.39995E+00	2.18635E+00	0.00000E+00
1.40685E+00	2.18602E+00	0.00000E+00
1.41375E+00	2.18569E+00	0.00000E+00
1.42063E+00	2.18538E+00	0.00000E+00
1.42752E+00	2.18507E+00	0.00000E+00
1.43442E+00	2.18478E+00	0.00000E+00
1.44131E+00	2.18449E+00	0.00000E+00
1.44821E+00	2.18422E+00	0.00000E+00
1.45511E+00	2.18395E+00	0.00000E+00
1.46201E+00	2.18370E+00	0.00000E+00
1.46890E+00	2.18345E+00	0.00000E+00
1.47581E+00	2.18321E+00	0.00000E+00
1.48271E+00	2.18298E+00	0.00000E+00
1.48962E+00	2.18276E+00	0.00000E+00
1.49653E+00	2.18255E+00	0.00000E+00
1.50344E+00	2.18235E+00	0.00000E+00
1.51034E+00	2.18215E+00	0.00000E+00
1.51726E+00	2.18197E+00	0.00000E+00
1.52418E+00	2.18179E+00	0.00000E+00
1.53108E+00	2.18162E+00	0.00000E+00
1.53800E+00	2.18145E+00	0.00000E+00
1.54492E+00	2.18130E+00	0.00000E+00
1.55184E+00	2.18115E+00	0.00000E+00
1.55877E+00	2.18101E+00	0.00000E+00
1.56567E+00	2.18087E+00	0.00000E+00
1.57261E+00	2.18075E+00	0.00000E+00
1.57952E+00	2.18063E+00	0.00000E+00
1.58645E+00	2.18051E+00	0.00000E+00
1.59338E+00	2.18041E+00	0.00000E+00
1.60031E+00	2.18031E+00	0.00000E+00
1.60724E+00	2.18021E+00	0.00000E+00
1.61417E+00	2.18012E+00	0.00000E+00
1.62109E+00	2.18004E+00	0.00000E+00
1.62803E+00	2.17997E+00	0.00000E+00
1.63496E+00	2.17990E+00	0.00000E+00
1.64189E+00	2.17984E+00	0.00000E+00
1.64884E+00	2.17978E+00	0.00000E+00
1.65577E+00	2.17973E+00	0.00000E+00
1.66272E+00	2.17968E+00	0.00000E+00
1.66966E+00	2.17964E+00	0.00000E+00
1.67659E+00	2.17961E+00	0.00000E+00
1.68354E+00	2.17958E+00	0.00000E+00
