Material: perovskite / 2D HOIP / Song-DJ4
Optical constants. B. Song, J. Hou, H. Wang, S. Sidhik, J. Miao, H. Gu, H. Zhang, S. Liu, Z. Fakhraai, J. Even, J.-C. Blancon, A. D. Mohite, D. Jariwala. Determination of dielectric functions and exciton oscillator strength of two-dimensional hybrid perovskites, ACS Materials Lett. 3, 148-159 (2021)(Numerical data kindly provided by Baokun Song)
Comments: Two-dimensional (2D) hybrid organic−inorganic perovskite (HOIP) semiconductor. Dion−Jacobson (DJ) phase. A'(MA)m-1PbmI3m+1,where A' = 4−(aminomethyl)piperidinium (4AMP), MA = CH3NH3, and m determines the thickness of the lead−iodide perovskite layer.m = 4
Specs: {"n_absolute": true, "wavelength_vacuum": true, "substrate": "glass"}
wavelength (um)	n	k
3.70914E-01	2.23347E+00	1.16012E+00
3.74077E-01	2.27160E+00	1.12573E+00
3.77240E-01	2.30444E+00	1.08948E+00
3.80405E-01	2.33206E+00	1.05231E+00
3.83571E-01	2.35469E+00	1.01503E+00
3.86736E-01	2.37269E+00	9.78370E-01
3.89902E-01	2.38652E+00	9.42890E-01
3.93069E-01	2.39667E+00	9.09030E-01
3.96237E-01	2.40366E+00	8.77100E-01
3.99404E-01	2.40800E+00	8.47300E-01
4.02574E-01	2.41015E+00	8.19730E-01
4.05742E-01	2.41054E+00	7.94420E-01
4.08911E-01	2.40956E+00	7.71360E-01
4.12082E-01	2.40754E+00	7.50480E-01
4.15252E-01	2.40479E+00	7.31700E-01
4.18423E-01	2.40155E+00	7.14900E-01
4.21595E-01	2.39803E+00	6.99980E-01
4.24766E-01	2.39441E+00	6.86810E-01
4.27939E-01	2.39087E+00	6.75280E-01
4.31111E-01	2.38752E+00	6.65270E-01
4.34284E-01	2.38450E+00	6.56660E-01
4.37459E-01	2.38189E+00	6.49360E-01
4.40632E-01	2.37980E+00	6.43260E-01
4.43807E-01	2.37831E+00	6.38260E-01
4.46983E-01	2.37751E+00	6.34290E-01
4.50158E-01	2.37749E+00	6.31250E-01
4.53334E-01	2.37834E+00	6.29050E-01
4.56511E-01	2.38015E+00	6.27600E-01
4.59688E-01	2.38303E+00	6.26810E-01
4.62864E-01	2.38711E+00	6.26550E-01
4.66041E-01	2.39251E+00	6.26690E-01
4.69219E-01	2.39940E+00	6.27060E-01
4.72398E-01	2.40792E+00	6.27400E-01
4.75576E-01	2.41821E+00	6.27430E-01
4.78755E-01	2.43039E+00	6.26730E-01
4.81934E-01	2.44448E+00	6.24800E-01
4.85113E-01	2.46037E+00	6.21020E-01
4.88294E-01	2.47770E+00	6.14710E-01
4.91474E-01	2.49580E+00	6.05240E-01
4.94655E-01	2.51370E+00	5.92180E-01
4.97837E-01	2.53014E+00	5.75530E-01
5.01017E-01	2.54390E+00	5.55850E-01
5.04198E-01	2.55405E+00	5.34260E-01
5.07379E-01	2.56029E+00	5.12150E-01
5.10561E-01	2.56295E+00	4.90880E-01
5.13743E-01	2.56285E+00	4.71390E-01
5.16926E-01	2.56101E+00	4.54130E-01
5.20109E-01	2.55837E+00	4.39110E-01
5.23292E-01	2.55566E+00	4.26020E-01
5.26474E-01	2.55334E+00	4.14410E-01
5.29659E-01	2.55166E+00	4.03820E-01
5.32844E-01	2.55069E+00	3.93800E-01
5.36027E-01	2.55037E+00	3.83980E-01
5.39212E-01	2.55058E+00	3.74090E-01
5.42396E-01	2.55122E+00	3.63900E-01
5.45580E-01	2.55208E+00	3.53020E-01
5.48765E-01	2.55262E+00	3.41360E-01
5.51949E-01	2.55249E+00	3.29070E-01
5.55134E-01	2.55141E+00	3.16330E-01
5.58319E-01	2.54916E+00	3.03380E-01
5.61505E-01	2.54557E+00	2.90540E-01
5.64691E-01	2.54054E+00	2.78180E-01
5.67875E-01	2.53408E+00	2.66730E-01
5.71061E-01	2.52632E+00	2.56650E-01
5.74248E-01	2.51755E+00	2.48430E-01
5.77433E-01	2.50822E+00	2.42500E-01
5.80619E-01	2.49900E+00	2.39220E-01
5.83807E-01	2.49081E+00	2.38810E-01
5.86994E-01	2.48490E+00	2.41270E-01
5.90179E-01	2.48331E+00	2.45190E-01
5.93365E-01	2.48526E+00	2.48100E-01
5.96551E-01	2.48996E+00	2.49520E-01
5.99737E-01	2.49703E+00	2.48870E-01
6.02925E-01	2.50601E+00	2.45440E-01
6.06111E-01	2.51612E+00	2.38450E-01
6.09298E-01	2.52620E+00	2.27260E-01
6.12485E-01	2.53464E+00	2.11590E-01
6.15673E-01	2.53950E+00	1.91880E-01
6.18860E-01	2.53898E+00	1.69550E-01
6.22045E-01	2.53197E+00	1.46870E-01
6.25232E-01	2.51849E+00	1.26570E-01
6.28420E-01	2.49973E+00	1.11110E-01
6.31606E-01	2.47777E+00	1.02190E-01
6.34794E-01	2.45496E+00	1.00670E-01
6.37979E-01	2.43371E+00	1.06750E-01
6.41166E-01	2.41653E+00	1.20220E-01
6.44355E-01	2.40670E+00	1.40260E-01
6.47539E-01	2.40726E+00	1.63730E-01
6.50726E-01	2.42066E+00	1.86860E-01
6.53915E-01	2.44822E+00	2.02280E-01
6.57100E-01	2.48469E+00	2.00620E-01
6.60288E-01	2.51727E+00	1.78640E-01
6.63471E-01	2.53492E+00	1.44210E-01
6.66657E-01	2.53643E+00	1.08950E-01
6.69844E-01	2.52724E+00	7.96700E-02
6.73030E-01	2.51302E+00	5.77200E-02
6.76216E-01	2.49736E+00	4.19700E-02
6.79403E-01	2.48200E+00	3.08100E-02
6.82590E-01	2.46766E+00	2.28800E-02
6.85772E-01	2.45452E+00	1.71800E-02
6.88958E-01	2.44256E+00	1.30400E-02
6.92143E-01	2.43169E+00	1.00000E-02
6.95329E-01	2.42178E+00	7.74000E-03
6.98514E-01	2.41270E+00	6.04000E-03
7.01697E-01	2.40435E+00	4.76000E-03
7.04884E-01	2.39663E+00	3.78000E-03
7.08068E-01	2.38946E+00	3.03000E-03
7.11253E-01	2.38278E+00	2.46000E-03
7.14433E-01	2.37652E+00	2.03000E-03
7.17617E-01	2.37065E+00	1.70000E-03
7.20801E-01	2.36512E+00	1.46000E-03
7.23987E-01	2.35991E+00	1.28000E-03
7.27167E-01	2.35499E+00	1.15000E-03
7.30350E-01	2.35033E+00	1.03000E-03
7.33534E-01	2.34589E+00	9.18000E-04
7.36716E-01	2.34165E+00	8.13000E-04
7.39899E-01	2.33758E+00	7.16000E-04
7.43079E-01	2.33368E+00	6.25000E-04
7.46259E-01	2.32992E+00	5.41000E-04
7.49444E-01	2.32629E+00	4.64000E-04
7.52624E-01	2.32279E+00	3.93000E-04
7.55803E-01	2.31941E+00	3.29000E-04
7.58982E-01	2.31614E+00	2.71000E-04
7.62164E-01	2.31296E+00	2.19000E-04
7.65344E-01	2.30989E+00	1.72000E-04
7.68522E-01	2.30690E+00	1.32000E-04
7.71699E-01	2.30400E+00	9.70000E-05
7.74882E-01	2.30119E+00	6.80000E-05
7.78057E-01	2.29845E+00	4.40000E-05
7.81234E-01	2.29578E+00	2.50000E-05
7.84412E-01	2.29319E+00	1.20000E-05
7.87591E-01	2.29066E+00	3.00000E-06
7.90766E-01	2.28820E+00	0.00000E+00
7.93941E-01	2.28581E+00	0.00000E+00
7.97121E-01	2.28348E+00	0.00000E+00
8.00296E-01	2.28120E+00	0.00000E+00
8.03470E-01	2.27898E+00	0.00000E+00
8.06643E-01	2.27681E+00	0.00000E+00
8.09820E-01	2.27470E+00	0.00000E+00
8.12990E-01	2.27263E+00	0.00000E+00
8.16163E-01	2.27060E+00	0.00000E+00
8.19335E-01	2.26862E+00	0.00000E+00
8.22509E-01	2.26668E+00	0.00000E+00
8.25681E-01	2.26478E+00	0.00000E+00
8.28854E-01	2.26292E+00	0.00000E+00
8.32025E-01	2.26110E+00	0.00000E+00
8.35192E-01	2.25931E+00	0.00000E+00
8.38366E-01	2.25756E+00	0.00000E+00
8.41535E-01	2.25584E+00	0.00000E+00
8.44700E-01	2.25415E+00	0.00000E+00
8.47871E-01	2.25250E+00	0.00000E+00
8.51037E-01	2.25087E+00	0.00000E+00
8.54203E-01	2.24927E+00	0.00000E+00
8.57375E-01	2.24771E+00	0.00000E+00
8.60541E-01	2.24617E+00	0.00000E+00
8.63706E-01	2.24465E+00	0.00000E+00
8.66871E-01	2.24316E+00	0.00000E+00
8.70034E-01	2.24170E+00	0.00000E+00
8.73196E-01	2.24026E+00	0.00000E+00
8.76362E-01	2.23885E+00	0.00000E+00
8.79526E-01	2.23746E+00	0.00000E+00
8.82689E-01	2.23609E+00	0.00000E+00
8.85848E-01	2.23474E+00	0.00000E+00
8.89005E-01	2.23341E+00	0.00000E+00
8.92172E-01	2.23210E+00	0.00000E+00
8.95329E-01	2.23081E+00	0.00000E+00
8.98488E-01	2.22955E+00	0.00000E+00
9.01644E-01	2.22830E+00	0.00000E+00
9.04803E-01	2.22707E+00	0.00000E+00
9.07957E-01	2.22585E+00	0.00000E+00
9.11113E-01	2.22466E+00	0.00000E+00
9.14270E-01	2.22348E+00	0.00000E+00
9.17430E-01	2.22231E+00	0.00000E+00
9.20584E-01	2.22117E+00	0.00000E+00
9.23732E-01	2.22004E+00	0.00000E+00
9.26888E-01	2.21892E+00	0.00000E+00
9.30037E-01	2.21782E+00	0.00000E+00
9.33187E-01	2.21673E+00	0.00000E+00
9.36338E-01	2.21566E+00	0.00000E+00
9.39488E-01	2.21460E+00	0.00000E+00
9.42638E-01	2.21356E+00	0.00000E+00
9.45787E-01	2.21252E+00	0.00000E+00
9.48936E-01	2.21150E+00	0.00000E+00
9.52084E-01	2.21050E+00	0.00000E+00
9.55231E-01	2.20951E+00	0.00000E+00
9.58376E-01	2.20852E+00	0.00000E+00
9.61520E-01	2.20755E+00	0.00000E+00
9.64662E-01	2.20659E+00	0.00000E+00
9.67802E-01	2.20565E+00	0.00000E+00
9.70948E-01	2.20471E+00	0.00000E+00
9.74091E-01	2.20378E+00	0.00000E+00
9.77231E-01	2.20287E+00	0.00000E+00
9.80368E-01	2.20196E+00	0.00000E+00
9.83510E-01	2.20107E+00	0.00000E+00
9.86648E-01	2.20018E+00	0.00000E+00
9.89783E-01	2.19931E+00	0.00000E+00
9.92914E-01	2.19844E+00	0.00000E+00
9.96049E-01	2.19758E+00	0.00000E+00
9.99188E-01	2.19674E+00	0.00000E+00
1.01641E+00	2.19223E+00	0.00000E+00
1.02322E+00	2.19051E+00	0.00000E+00
1.03003E+00	2.18883E+00	0.00000E+00
1.03684E+00	2.18718E+00	0.00000E+00
1.04366E+00	2.18556E+00	0.00000E+00
1.05047E+00	2.18397E+00	0.00000E+00
1.05729E+00	2.18242E+00	0.00000E+00
1.06411E+00	2.18089E+00	0.00000E+00
1.07093E+00	2.17938E+00	0.00000E+00
1.07775E+00	2.17791E+00	0.00000E+00
1.08457E+00	2.17645E+00	0.00000E+00
1.09140E+00	2.17503E+00	0.00000E+00
1.09823E+00	2.17362E+00	0.00000E+00
1.10506E+00	2.17224E+00	0.00000E+00
1.11189E+00	2.17088E+00	0.00000E+00
1.11872E+00	2.16954E+00	0.00000E+00
1.12554E+00	2.16822E+00	0.00000E+00
1.13238E+00	2.16691E+00	0.00000E+00
1.13922E+00	2.16563E+00	0.00000E+00
1.14605E+00	2.16437E+00	0.00000E+00
1.15289E+00	2.16312E+00	0.00000E+00
1.15973E+00	2.16188E+00	0.00000E+00
1.16657E+00	2.16067E+00	0.00000E+00
1.17340E+00	2.15947E+00	0.00000E+00
1.18025E+00	2.15828E+00	0.00000E+00
1.18709E+00	2.15711E+00	0.00000E+00
1.19394E+00	2.15595E+00	0.00000E+00
1.20079E+00	2.15481E+00	0.00000E+00
1.20763E+00	2.15367E+00	0.00000E+00
1.21448E+00	2.15256E+00	0.00000E+00
1.22134E+00	2.15145E+00	0.00000E+00
1.22819E+00	2.15035E+00	0.00000E+00
1.23504E+00	2.14927E+00	0.00000E+00
1.24190E+00	2.14819E+00	0.00000E+00
1.24876E+00	2.14713E+00	0.00000E+00
1.25561E+00	2.14607E+00	0.00000E+00
1.26248E+00	2.14503E+00	0.00000E+00
1.26933E+00	2.14399E+00	0.00000E+00
1.27620E+00	2.14297E+00	0.00000E+00
1.28306E+00	2.14195E+00	0.00000E+00
1.28993E+00	2.14094E+00	0.00000E+00
1.29680E+00	2.13994E+00	0.00000E+00
1.30366E+00	2.13895E+00	0.00000E+00
1.31053E+00	2.13796E+00	0.00000E+00
1.31740E+00	2.13699E+00	0.00000E+00
1.32428E+00	2.13602E+00	0.00000E+00
1.33115E+00	2.13505E+00	0.00000E+00
1.33803E+00	2.13409E+00	0.00000E+00
1.34489E+00	2.13314E+00	0.00000E+00
1.35178E+00	2.13220E+00	0.00000E+00
1.35866E+00	2.13126E+00	0.00000E+00
1.36554E+00	2.13033E+00	0.00000E+00
1.37242E+00	2.12940E+00	0.00000E+00
1.37930E+00	2.12848E+00	0.00000E+00
1.38618E+00	2.12756E+00	0.00000E+00
1.39307E+00	2.12665E+00	0.00000E+00
1.39995E+00	2.12574E+00	0.00000E+00
1.40685E+00	2.12484E+00	0.00000E+00
1.41375E+00	2.12394E+00	0.00000E+00
1.42063E+00	2.12304E+00	0.00000E+00
1.42752E+00	2.12215E+00	0.00000E+00
1.43442E+00	2.12127E+00	0.00000E+00
1.44131E+00	2.12039E+00	0.00000E+00
1.44821E+00	2.11951E+00	0.00000E+00
1.45511E+00	2.11863E+00	0.00000E+00
1.46201E+00	2.11776E+00	0.00000E+00
1.46890E+00	2.11689E+00	0.00000E+00
1.47581E+00	2.11603E+00	0.00000E+00
1.48271E+00	2.11517E+00	0.00000E+00
1.48962E+00	2.11431E+00	0.00000E+00
1.49653E+00	2.11345E+00	0.00000E+00
1.50344E+00	2.11260E+00	0.00000E+00
1.51034E+00	2.11174E+00	0.00000E+00
1.51726E+00	2.11090E+00	0.00000E+00
1.52418E+00	2.11005E+00	0.00000E+00
1.53108E+00	2.10920E+00	0.00000E+00
1.53800E+00	2.10836E+00	0.00000E+00
1.54492E+00	2.10752E+00	0.00000E+00
1.55184E+00	2.10668E+00	0.00000E+00
1.55877E+00	2.10585E+00	0.00000E+00
1.56567E+00	2.10501E+00	0.00000E+00
1.57261E+00	2.10418E+00	0.00000E+00
1.57952E+00	2.10335E+00	0.00000E+00
1.58645E+00	2.10251E+00	0.00000E+00
1.59338E+00	2.10168E+00	0.00000E+00
1.60031E+00	2.10086E+00	0.00000E+00
1.60724E+00	2.10003E+00	0.00000E+00
1.61417E+00	2.09921E+00	0.00000E+00
1.62109E+00	2.09838E+00	0.00000E+00
1.62803E+00	2.09756E+00	0.00000E+00
1.63496E+00	2.09673E+00	0.00000E+00
1.64189E+00	2.09591E+00	0.00000E+00
1.64884E+00	2.09509E+00	0.00000E+00
1.65577E+00	2.09427E+00	0.00000E+00
1.66272E+00	2.09345E+00	0.00000E+00
1.66966E+00	2.09263E+00	0.00000E+00
1.67659E+00	2.09181E+00	0.00000E+00
1.68354E+00	2.09100E+00	0.00000E+00
