Material: perovskite / 2D HOIP / Song-RP2
Optical constants. B. Song, J. Hou, H. Wang, S. Sidhik, J. Miao, H. Gu, H. Zhang, S. Liu, Z. Fakhraai, J. Even, J.-C. Blancon, A. D. Mohite, D. Jariwala. Determination of dielectric functions and exciton oscillator strength of two-dimensional hybrid perovskites, ACS Materials Lett. 3, 148-159 (2021)(Numerical data kindly provided by Baokun Song)
Comments: Two-dimensional (2D) hybrid organic−inorganic perovskite (HOIP) semiconductor. Ruddlesden–Popper (RP) phase. (BA)2(MA)n-1PbnI3n-1,where BA = CH3(CH2)3NH3, MA = CH3NH3, and n determines the thickness of the lead−iodide perovskite layer.n = 2
Specs: {"n_absolute": true, "wavelength_vacuum": true, "substrate": "glass"}
wavelength (um)	n	k
3.70914E-01	1.99752E+00	1.01437E+00
3.74077E-01	2.01849E+00	1.00514E+00
3.77240E-01	2.03765E+00	9.95030E-01
3.80405E-01	2.05471E+00	9.84460E-01
3.83571E-01	2.06948E+00	9.74010E-01
3.86736E-01	2.08187E+00	9.64420E-01
3.89902E-01	2.09203E+00	9.56540E-01
3.93069E-01	2.10044E+00	9.51330E-01
3.96237E-01	2.10797E+00	9.49770E-01
3.99404E-01	2.11602E+00	9.52650E-01
4.02574E-01	2.12657E+00	9.60330E-01
4.05742E-01	2.14207E+00	9.72400E-01
4.08911E-01	2.16515E+00	9.87230E-01
4.12082E-01	2.19803E+00	1.00166E+00
4.15252E-01	2.24144E+00	1.01106E+00
4.18423E-01	2.29363E+00	1.01005E+00
4.21595E-01	2.34972E+00	9.94270E-01
4.24766E-01	2.40257E+00	9.62370E-01
4.27939E-01	2.44513E+00	9.17240E-01
4.31111E-01	2.47323E+00	8.65160E-01
4.34284E-01	2.48727E+00	8.12480E-01
4.37459E-01	2.48872E+00	7.63450E-01
4.40632E-01	2.48091E+00	7.21860E-01
4.43807E-01	2.46787E+00	6.89020E-01
4.46983E-01	2.45293E+00	6.64630E-01
4.50158E-01	2.43854E+00	6.47550E-01
4.53334E-01	2.42629E+00	6.36330E-01
4.56511E-01	2.41714E+00	6.29530E-01
4.59688E-01	2.41162E+00	6.25750E-01
4.62864E-01	2.40992E+00	6.23750E-01
4.66041E-01	2.41202E+00	6.22390E-01
4.69219E-01	2.41771E+00	6.20640E-01
4.72398E-01	2.42661E+00	6.17550E-01
4.75576E-01	2.43815E+00	6.12310E-01
4.78755E-01	2.45162E+00	6.04210E-01
4.81934E-01	2.46614E+00	5.92710E-01
4.85113E-01	2.48067E+00	5.77500E-01
4.88294E-01	2.49412E+00	5.58550E-01
4.91474E-01	2.50536E+00	5.36140E-01
4.94655E-01	2.51338E+00	5.10860E-01
4.97837E-01	2.51734E+00	4.83620E-01
5.01017E-01	2.51674E+00	4.55490E-01
5.04198E-01	2.51137E+00	4.27670E-01
5.07379E-01	2.50140E+00	4.01320E-01
5.10561E-01	2.48725E+00	3.77450E-01
5.13743E-01	2.46957E+00	3.56880E-01
5.16926E-01	2.44911E+00	3.40210E-01
5.20109E-01	2.42664E+00	3.27830E-01
5.23292E-01	2.40288E+00	3.19950E-01
5.26474E-01	2.37850E+00	3.16660E-01
5.29659E-01	2.35403E+00	3.17990E-01
5.32844E-01	2.32990E+00	3.24010E-01
5.36027E-01	2.30647E+00	3.34890E-01
5.39212E-01	2.28412E+00	3.50960E-01
5.42396E-01	2.26323E+00	3.72760E-01
5.45580E-01	2.24439E+00	4.01160E-01
5.48765E-01	2.22850E+00	4.37490E-01
5.51949E-01	2.21724E+00	4.83690E-01
5.55134E-01	2.21367E+00	5.42060E-01
5.58319E-01	2.22268E+00	6.15970E-01
5.61505E-01	2.25478E+00	7.09260E-01
5.64691E-01	2.33047E+00	8.21650E-01
5.67875E-01	2.48414E+00	9.34840E-01
5.71061E-01	2.74745E+00	9.79480E-01
5.74248E-01	3.05490E+00	8.28920E-01
5.77433E-01	3.18927E+00	4.99970E-01
5.80619E-01	3.10868E+00	2.23860E-01
5.83807E-01	2.96585E+00	8.10400E-02
5.86994E-01	2.84120E+00	2.19400E-02
5.90179E-01	2.74750E+00	2.46000E-03
5.93365E-01	2.68119E+00	0.00000E+00
5.96551E-01	2.63405E+00	0.00000E+00
5.99737E-01	2.59697E+00	0.00000E+00
6.02925E-01	2.56639E+00	0.00000E+00
6.06111E-01	2.54042E+00	0.00000E+00
6.09298E-01	2.51789E+00	0.00000E+00
6.12485E-01	2.49804E+00	0.00000E+00
6.15673E-01	2.48032E+00	0.00000E+00
6.18860E-01	2.46434E+00	0.00000E+00
6.22045E-01	2.44981E+00	0.00000E+00
6.25232E-01	2.43649E+00	0.00000E+00
6.28420E-01	2.42423E+00	0.00000E+00
6.31606E-01	2.41286E+00	0.00000E+00
6.34794E-01	2.40228E+00	0.00000E+00
6.37979E-01	2.39240E+00	0.00000E+00
6.41166E-01	2.38312E+00	0.00000E+00
6.44355E-01	2.37440E+00	0.00000E+00
6.47539E-01	2.36617E+00	0.00000E+00
6.50726E-01	2.35838E+00	0.00000E+00
6.53915E-01	2.35100E+00	0.00000E+00
6.57100E-01	2.34399E+00	0.00000E+00
6.60288E-01	2.33731E+00	0.00000E+00
6.63471E-01	2.33094E+00	0.00000E+00
6.66657E-01	2.32486E+00	0.00000E+00
6.69844E-01	2.31904E+00	0.00000E+00
6.73030E-01	2.31346E+00	0.00000E+00
6.76216E-01	2.30811E+00	0.00000E+00
6.79403E-01	2.30297E+00	0.00000E+00
6.82590E-01	2.29804E+00	0.00000E+00
6.85772E-01	2.29328E+00	0.00000E+00
6.88958E-01	2.28870E+00	0.00000E+00
6.92143E-01	2.28429E+00	0.00000E+00
6.95329E-01	2.28002E+00	0.00000E+00
6.98514E-01	2.27591E+00	0.00000E+00
7.01697E-01	2.27193E+00	0.00000E+00
7.04884E-01	2.26808E+00	0.00000E+00
7.08068E-01	2.26435E+00	0.00000E+00
7.11253E-01	2.26074E+00	0.00000E+00
7.14433E-01	2.25724E+00	0.00000E+00
7.17617E-01	2.25384E+00	0.00000E+00
7.20801E-01	2.25055E+00	0.00000E+00
7.23987E-01	2.24735E+00	0.00000E+00
7.27167E-01	2.24424E+00	0.00000E+00
7.30350E-01	2.24122E+00	0.00000E+00
7.33534E-01	2.23828E+00	0.00000E+00
7.36716E-01	2.23543E+00	0.00000E+00
7.39899E-01	2.23265E+00	0.00000E+00
7.43079E-01	2.22994E+00	0.00000E+00
7.46259E-01	2.22730E+00	0.00000E+00
7.49444E-01	2.22473E+00	0.00000E+00
7.52624E-01	2.22223E+00	0.00000E+00
7.55803E-01	2.21979E+00	0.00000E+00
7.58982E-01	2.21740E+00	0.00000E+00
7.62164E-01	2.21508E+00	0.00000E+00
7.65344E-01	2.21281E+00	0.00000E+00
7.68522E-01	2.21060E+00	0.00000E+00
7.71699E-01	2.20843E+00	0.00000E+00
7.74882E-01	2.20632E+00	0.00000E+00
7.78057E-01	2.20425E+00	0.00000E+00
7.81234E-01	2.20224E+00	0.00000E+00
7.84412E-01	2.20026E+00	0.00000E+00
7.87591E-01	2.19833E+00	0.00000E+00
7.90766E-01	2.19645E+00	0.00000E+00
7.93941E-01	2.19460E+00	0.00000E+00
7.97121E-01	2.19279E+00	0.00000E+00
8.00296E-01	2.19102E+00	0.00000E+00
8.03470E-01	2.18929E+00	0.00000E+00
8.06643E-01	2.18759E+00	0.00000E+00
8.09820E-01	2.18593E+00	0.00000E+00
8.12990E-01	2.18430E+00	0.00000E+00
8.16163E-01	2.18271E+00	0.00000E+00
8.19335E-01	2.18114E+00	0.00000E+00
8.22509E-01	2.17961E+00	0.00000E+00
8.25681E-01	2.17811E+00	0.00000E+00
8.28854E-01	2.17664E+00	0.00000E+00
8.32025E-01	2.17519E+00	0.00000E+00
8.35192E-01	2.17378E+00	0.00000E+00
8.38366E-01	2.17238E+00	0.00000E+00
8.41535E-01	2.17102E+00	0.00000E+00
8.44700E-01	2.16968E+00	0.00000E+00
8.47871E-01	2.16837E+00	0.00000E+00
8.51037E-01	2.16708E+00	0.00000E+00
8.54203E-01	2.16581E+00	0.00000E+00
8.57375E-01	2.16457E+00	0.00000E+00
8.60541E-01	2.16335E+00	0.00000E+00
8.63706E-01	2.16215E+00	0.00000E+00
8.66871E-01	2.16098E+00	0.00000E+00
8.70034E-01	2.15982E+00	0.00000E+00
8.73196E-01	2.15868E+00	0.00000E+00
8.76362E-01	2.15756E+00	0.00000E+00
8.79526E-01	2.15647E+00	0.00000E+00
8.82689E-01	2.15539E+00	0.00000E+00
8.85848E-01	2.15433E+00	0.00000E+00
8.89005E-01	2.15329E+00	0.00000E+00
8.92172E-01	2.15226E+00	0.00000E+00
8.95329E-01	2.15125E+00	0.00000E+00
8.98488E-01	2.15026E+00	0.00000E+00
9.01644E-01	2.14929E+00	0.00000E+00
9.04803E-01	2.14833E+00	0.00000E+00
9.07957E-01	2.14739E+00	0.00000E+00
9.11113E-01	2.14646E+00	0.00000E+00
9.14270E-01	2.14555E+00	0.00000E+00
9.17430E-01	2.14465E+00	0.00000E+00
9.20584E-01	2.14377E+00	0.00000E+00
9.23732E-01	2.14290E+00	0.00000E+00
9.26888E-01	2.14204E+00	0.00000E+00
9.30037E-01	2.14120E+00	0.00000E+00
9.33187E-01	2.14037E+00	0.00000E+00
9.36338E-01	2.13956E+00	0.00000E+00
9.39488E-01	2.13875E+00	0.00000E+00
9.42638E-01	2.13796E+00	0.00000E+00
9.45787E-01	2.13718E+00	0.00000E+00
9.48936E-01	2.13642E+00	0.00000E+00
9.52084E-01	2.13566E+00	0.00000E+00
9.55231E-01	2.13492E+00	0.00000E+00
9.58376E-01	2.13418E+00	0.00000E+00
9.61520E-01	2.13346E+00	0.00000E+00
9.64662E-01	2.13275E+00	0.00000E+00
9.67802E-01	2.13205E+00	0.00000E+00
9.70948E-01	2.13136E+00	0.00000E+00
9.74091E-01	2.13068E+00	0.00000E+00
9.77231E-01	2.13001E+00	0.00000E+00
9.80368E-01	2.12935E+00	0.00000E+00
9.83510E-01	2.12870E+00	0.00000E+00
9.86648E-01	2.12806E+00	0.00000E+00
9.89783E-01	2.12743E+00	0.00000E+00
9.92914E-01	2.12681E+00	0.00000E+00
9.96049E-01	2.12620E+00	0.00000E+00
9.99188E-01	2.12559E+00	0.00000E+00
1.01641E+00	2.12242E+00	0.00000E+00
1.02322E+00	2.12123E+00	0.00000E+00
1.03003E+00	2.12007E+00	0.00000E+00
1.03684E+00	2.11895E+00	0.00000E+00
1.04366E+00	2.11787E+00	0.00000E+00
1.05047E+00	2.11681E+00	0.00000E+00
1.05729E+00	2.11578E+00	0.00000E+00
1.06411E+00	2.11478E+00	0.00000E+00
1.07093E+00	2.11382E+00	0.00000E+00
1.07775E+00	2.11287E+00	0.00000E+00
1.08457E+00	2.11196E+00	0.00000E+00
1.09140E+00	2.11107E+00	0.00000E+00
1.09823E+00	2.11020E+00	0.00000E+00
1.10506E+00	2.10936E+00	0.00000E+00
1.11189E+00	2.10855E+00	0.00000E+00
1.11872E+00	2.10775E+00	0.00000E+00
1.12554E+00	2.10698E+00	0.00000E+00
1.13238E+00	2.10623E+00	0.00000E+00
1.13922E+00	2.10550E+00	0.00000E+00
1.14605E+00	2.10479E+00	0.00000E+00
1.15289E+00	2.10410E+00	0.00000E+00
1.15973E+00	2.10342E+00	0.00000E+00
1.16657E+00	2.10277E+00	0.00000E+00
1.17340E+00	2.10213E+00	0.00000E+00
1.18025E+00	2.10152E+00	0.00000E+00
1.18709E+00	2.10092E+00	0.00000E+00
1.19394E+00	2.10033E+00	0.00000E+00
1.20079E+00	2.09976E+00	0.00000E+00
1.20763E+00	2.09921E+00	0.00000E+00
1.21448E+00	2.09867E+00	0.00000E+00
1.22134E+00	2.09815E+00	0.00000E+00
1.22819E+00	2.09764E+00	0.00000E+00
1.23504E+00	2.09715E+00	0.00000E+00
1.24190E+00	2.09667E+00	0.00000E+00
1.24876E+00	2.09620E+00	0.00000E+00
1.25561E+00	2.09575E+00	0.00000E+00
1.26248E+00	2.09530E+00	0.00000E+00
1.26933E+00	2.09488E+00	0.00000E+00
1.27620E+00	2.09446E+00	0.00000E+00
1.28306E+00	2.09405E+00	0.00000E+00
1.28993E+00	2.09366E+00	0.00000E+00
1.29680E+00	2.09328E+00	0.00000E+00
1.30366E+00	2.09291E+00	0.00000E+00
1.31053E+00	2.09255E+00	0.00000E+00
1.31740E+00	2.09220E+00	0.00000E+00
1.32428E+00	2.09186E+00	0.00000E+00
1.33115E+00	2.09153E+00	0.00000E+00
1.33803E+00	2.09121E+00	0.00000E+00
1.34489E+00	2.09090E+00	0.00000E+00
1.35178E+00	2.09060E+00	0.00000E+00
1.35866E+00	2.09031E+00	0.00000E+00
1.36554E+00	2.09003E+00	0.00000E+00
1.37242E+00	2.08976E+00	0.00000E+00
1.37930E+00	2.08949E+00	0.00000E+00
1.38618E+00	2.08924E+00	0.00000E+00
1.39307E+00	2.08899E+00	0.00000E+00
1.39995E+00	2.08875E+00	0.00000E+00
1.40685E+00	2.08852E+00	0.00000E+00
1.41375E+00	2.08830E+00	0.00000E+00
1.42063E+00	2.08808E+00	0.00000E+00
1.42752E+00	2.08787E+00	0.00000E+00
1.43442E+00	2.08767E+00	0.00000E+00
1.44131E+00	2.08748E+00	0.00000E+00
1.44821E+00	2.08729E+00	0.00000E+00
1.45511E+00	2.08711E+00	0.00000E+00
1.46201E+00	2.08694E+00	0.00000E+00
1.46890E+00	2.08678E+00	0.00000E+00
1.47581E+00	2.08662E+00	0.00000E+00
1.48271E+00	2.08647E+00	0.00000E+00
1.48962E+00	2.08632E+00	0.00000E+00
1.49653E+00	2.08618E+00	0.00000E+00
1.50344E+00	2.08605E+00	0.00000E+00
1.51034E+00	2.08592E+00	0.00000E+00
1.51726E+00	2.08580E+00	0.00000E+00
1.52418E+00	2.08568E+00	0.00000E+00
1.53108E+00	2.08557E+00	0.00000E+00
1.53800E+00	2.08547E+00	0.00000E+00
1.54492E+00	2.08537E+00	0.00000E+00
1.55184E+00	2.08528E+00	0.00000E+00
1.55877E+00	2.08519E+00	0.00000E+00
1.56567E+00	2.08511E+00	0.00000E+00
1.57261E+00	2.08503E+00	0.00000E+00
1.57952E+00	2.08496E+00	0.00000E+00
1.58645E+00	2.08489E+00	0.00000E+00
1.59338E+00	2.08483E+00	0.00000E+00
1.60031E+00	2.08477E+00	0.00000E+00
1.60724E+00	2.08472E+00	0.00000E+00
1.61417E+00	2.08467E+00	0.00000E+00
1.62109E+00	2.08463E+00	0.00000E+00
1.62803E+00	2.08459E+00	0.00000E+00
1.63496E+00	2.08455E+00	0.00000E+00
1.64189E+00	2.08453E+00	0.00000E+00
1.64884E+00	2.08450E+00	0.00000E+00
1.65577E+00	2.08448E+00	0.00000E+00
1.66272E+00	2.08446E+00	0.00000E+00
1.66966E+00	2.08445E+00	0.00000E+00
1.67659E+00	2.08444E+00	0.00000E+00
1.68354E+00	2.08444E+00	0.00000E+00
