Material: perovskite / 2D HOIP / Song-DJ2
Optical constants. B. Song, J. Hou, H. Wang, S. Sidhik, J. Miao, H. Gu, H. Zhang, S. Liu, Z. Fakhraai, J. Even, J.-C. Blancon, A. D. Mohite, D. Jariwala. Determination of dielectric functions and exciton oscillator strength of two-dimensional hybrid perovskites, ACS Materials Lett. 3, 148-159 (2021)(Numerical data kindly provided by Baokun Song)
Comments: Two-dimensional (2D) hybrid organic−inorganic perovskite (HOIP) semiconductor. Dion−Jacobson (DJ) phase. A'(MA)m-1PbmI3m+1,where A' = 4−(aminomethyl)piperidinium (4AMP), MA = CH3NH3, and m determines the thickness of the lead−iodide perovskite layer.m = 2
Specs: {"n_absolute": true, "wavelength_vacuum": true, "substrate": "glass"}
wavelength (um)	n	k
3.70914E-01	2.17303E+00	8.66290E-01
3.74077E-01	2.19312E+00	8.53380E-01
3.77240E-01	2.21251E+00	8.39500E-01
3.80405E-01	2.23112E+00	8.24660E-01
3.83571E-01	2.24886E+00	8.08910E-01
3.86736E-01	2.26562E+00	7.92270E-01
3.89902E-01	2.28132E+00	7.74820E-01
3.93069E-01	2.29585E+00	7.56620E-01
3.96237E-01	2.30911E+00	7.37750E-01
3.99404E-01	2.32103E+00	7.18320E-01
4.02574E-01	2.33152E+00	6.98430E-01
4.05742E-01	2.34049E+00	6.78220E-01
4.08911E-01	2.34789E+00	6.57820E-01
4.12082E-01	2.35367E+00	6.37410E-01
4.15252E-01	2.35778E+00	6.17150E-01
4.18423E-01	2.36022E+00	5.97230E-01
4.21595E-01	2.36098E+00	5.77870E-01
4.24766E-01	2.36011E+00	5.59270E-01
4.27939E-01	2.35766E+00	5.41670E-01
4.31111E-01	2.35374E+00	5.25290E-01
4.34284E-01	2.34849E+00	5.10390E-01
4.37459E-01	2.34211E+00	4.97190E-01
4.40632E-01	2.33484E+00	4.85950E-01
4.43807E-01	2.32701E+00	4.76860E-01
4.46983E-01	2.31903E+00	4.70100E-01
4.50158E-01	2.31139E+00	4.65780E-01
4.53334E-01	2.30465E+00	4.63900E-01
4.56511E-01	2.29949E+00	4.64290E-01
4.59688E-01	2.29659E+00	4.66590E-01
4.62864E-01	2.29659E+00	4.70130E-01
4.66041E-01	2.29996E+00	4.73960E-01
4.69219E-01	2.30682E+00	4.76850E-01
4.72398E-01	2.31678E+00	4.77470E-01
4.75576E-01	2.32883E+00	4.74650E-01
4.78755E-01	2.34148E+00	4.67690E-01
4.81934E-01	2.35299E+00	4.56670E-01
4.85113E-01	2.36187E+00	4.42430E-01
4.88294E-01	2.36735E+00	4.26410E-01
4.91474E-01	2.36958E+00	4.09560E-01
4.94655E-01	2.36808E+00	3.92780E-01
4.97837E-01	2.36320E+00	3.77350E-01
5.01017E-01	2.35568E+00	3.64090E-01
5.04198E-01	2.34632E+00	3.53420E-01
5.07379E-01	2.33586E+00	3.45480E-01
5.10561E-01	2.32489E+00	3.40220E-01
5.13743E-01	2.31386E+00	3.37540E-01
5.16926E-01	2.30312E+00	3.37280E-01
5.20109E-01	2.29294E+00	3.39310E-01
5.23292E-01	2.28350E+00	3.43540E-01
5.26474E-01	2.27500E+00	3.49930E-01
5.29659E-01	2.26759E+00	3.58470E-01
5.32844E-01	2.26147E+00	3.69270E-01
5.36027E-01	2.25691E+00	3.82450E-01
5.39212E-01	2.25426E+00	3.98260E-01
5.42396E-01	2.25404E+00	4.16980E-01
5.45580E-01	2.25703E+00	4.38970E-01
5.48765E-01	2.26437E+00	4.64620E-01
5.51949E-01	2.27780E+00	4.94240E-01
5.55134E-01	2.29993E+00	5.27770E-01
5.58319E-01	2.33456E+00	5.64220E-01
5.61505E-01	2.38690E+00	6.00440E-01
5.64691E-01	2.46278E+00	6.28790E-01
5.67875E-01	2.56505E+00	6.34240E-01
5.71061E-01	2.68434E+00	5.94790E-01
5.74248E-01	2.78897E+00	4.95430E-01
5.77433E-01	2.83752E+00	3.54080E-01
5.80619E-01	2.81838E+00	2.17660E-01
5.83807E-01	2.75771E+00	1.19410E-01
5.86994E-01	2.68648E+00	6.19600E-02
5.90179E-01	2.62163E+00	3.38500E-02
5.93365E-01	2.56877E+00	2.35300E-02
5.96551E-01	2.52933E+00	2.25100E-02
5.99737E-01	2.50007E+00	2.26000E-02
6.02925E-01	2.47629E+00	2.26700E-02
6.06111E-01	2.45622E+00	2.27300E-02
6.09298E-01	2.43885E+00	2.27600E-02
6.12485E-01	2.42355E+00	2.27800E-02
6.15673E-01	2.40989E+00	2.27800E-02
6.18860E-01	2.39757E+00	2.27700E-02
6.22045E-01	2.38635E+00	2.27500E-02
6.25232E-01	2.37607E+00	2.27200E-02
6.28420E-01	2.36658E+00	2.26900E-02
6.31606E-01	2.35779E+00	2.26500E-02
6.34794E-01	2.34959E+00	2.26100E-02
6.37979E-01	2.34193E+00	2.25600E-02
6.41166E-01	2.33474E+00	2.25100E-02
6.44355E-01	2.32796E+00	2.24600E-02
6.47539E-01	2.32157E+00	2.24000E-02
6.50726E-01	2.31551E+00	2.23500E-02
6.53915E-01	2.30976E+00	2.22800E-02
6.57100E-01	2.30430E+00	2.22200E-02
6.60288E-01	2.29909E+00	2.21600E-02
6.63471E-01	2.29412E+00	2.20900E-02
6.66657E-01	2.28937E+00	2.20300E-02
6.69844E-01	2.28482E+00	2.19600E-02
6.73030E-01	2.28046E+00	2.18900E-02
6.76216E-01	2.27627E+00	2.18200E-02
6.79403E-01	2.27224E+00	2.17500E-02
6.82590E-01	2.26837E+00	2.16800E-02
6.85772E-01	2.26463E+00	2.16100E-02
6.88958E-01	2.26103E+00	2.15400E-02
6.92143E-01	2.25755E+00	2.14700E-02
6.95329E-01	2.25419E+00	2.14000E-02
6.98514E-01	2.25095E+00	2.13200E-02
7.01697E-01	2.24780E+00	2.12500E-02
7.04884E-01	2.24476E+00	2.11800E-02
7.08068E-01	2.24180E+00	2.11000E-02
7.11253E-01	2.23894E+00	2.10300E-02
7.14433E-01	2.23616E+00	2.09600E-02
7.17617E-01	2.23346E+00	2.08900E-02
7.20801E-01	2.23084E+00	2.08100E-02
7.23987E-01	2.22829E+00	2.07400E-02
7.27167E-01	2.22581E+00	2.06700E-02
7.30350E-01	2.22340E+00	2.06000E-02
7.33534E-01	2.22105E+00	2.05200E-02
7.36716E-01	2.21875E+00	2.04500E-02
7.39899E-01	2.21652E+00	2.03800E-02
7.43079E-01	2.21434E+00	2.03100E-02
7.46259E-01	2.21222E+00	2.02400E-02
7.49444E-01	2.21015E+00	2.01700E-02
7.52624E-01	2.20812E+00	2.00900E-02
7.55803E-01	2.20614E+00	2.00200E-02
7.58982E-01	2.20421E+00	1.99500E-02
7.62164E-01	2.20232E+00	1.98800E-02
7.65344E-01	2.20048E+00	1.98100E-02
7.68522E-01	2.19867E+00	1.97400E-02
7.71699E-01	2.19690E+00	1.96800E-02
7.74882E-01	2.19517E+00	1.96100E-02
7.78057E-01	2.19347E+00	1.95400E-02
7.81234E-01	2.19181E+00	1.94700E-02
7.84412E-01	2.19019E+00	1.94000E-02
7.87591E-01	2.18859E+00	1.93300E-02
7.90766E-01	2.18703E+00	1.92700E-02
7.93941E-01	2.18550E+00	1.92000E-02
7.97121E-01	2.18400E+00	1.91300E-02
8.00296E-01	2.18252E+00	1.90700E-02
8.03470E-01	2.18107E+00	1.90000E-02
8.06643E-01	2.17965E+00	1.89300E-02
8.09820E-01	2.17826E+00	1.88700E-02
8.12990E-01	2.17689E+00	1.88000E-02
8.16163E-01	2.17555E+00	1.87400E-02
8.19335E-01	2.17422E+00	1.86800E-02
8.22509E-01	2.17293E+00	1.86100E-02
8.25681E-01	2.17165E+00	1.85500E-02
8.28854E-01	2.17039E+00	1.84900E-02
8.32025E-01	2.16916E+00	1.84200E-02
8.35192E-01	2.16795E+00	1.83600E-02
8.38366E-01	2.16675E+00	1.83000E-02
8.41535E-01	2.16558E+00	1.82400E-02
8.44700E-01	2.16442E+00	1.81800E-02
8.47871E-01	2.16329E+00	1.81100E-02
8.51037E-01	2.16216E+00	1.80500E-02
8.54203E-01	2.16106E+00	1.79900E-02
8.57375E-01	2.15998E+00	1.79300E-02
8.60541E-01	2.15890E+00	1.78700E-02
8.63706E-01	2.15785E+00	1.78100E-02
8.66871E-01	2.15681E+00	1.77600E-02
8.70034E-01	2.15579E+00	1.77000E-02
8.73196E-01	2.15478E+00	1.76400E-02
8.76362E-01	2.15379E+00	1.75800E-02
8.79526E-01	2.15280E+00	1.75200E-02
8.82689E-01	2.15184E+00	1.74700E-02
8.85848E-01	2.15089E+00	1.74100E-02
8.89005E-01	2.14994E+00	1.73500E-02
8.92172E-01	2.14902E+00	1.73000E-02
8.95329E-01	2.14810E+00	1.72400E-02
8.98488E-01	2.14720E+00	1.71900E-02
9.01644E-01	2.14630E+00	1.71300E-02
9.04803E-01	2.14542E+00	1.70800E-02
9.07957E-01	2.14456E+00	1.70200E-02
9.11113E-01	2.14370E+00	1.69700E-02
9.14270E-01	2.14285E+00	1.69100E-02
9.17430E-01	2.14201E+00	1.68600E-02
9.20584E-01	2.14119E+00	1.68100E-02
9.23732E-01	2.14037E+00	1.67500E-02
9.26888E-01	2.13956E+00	1.67000E-02
9.30037E-01	2.13876E+00	1.66500E-02
9.33187E-01	2.13798E+00	1.66000E-02
9.36338E-01	2.13720E+00	1.65500E-02
9.39488E-01	2.13643E+00	1.64900E-02
9.42638E-01	2.13566E+00	1.64400E-02
9.45787E-01	2.13491E+00	1.63900E-02
9.48936E-01	2.13417E+00	1.63400E-02
9.52084E-01	2.13343E+00	1.62900E-02
9.55231E-01	2.13270E+00	1.62400E-02
9.58376E-01	2.13198E+00	1.61900E-02
9.61520E-01	2.13127E+00	1.61400E-02
9.64662E-01	2.13057E+00	1.61000E-02
9.67802E-01	2.12987E+00	1.60500E-02
9.70948E-01	2.12918E+00	1.60000E-02
9.74091E-01	2.12850E+00	1.59500E-02
9.77231E-01	2.12782E+00	1.59000E-02
9.80368E-01	2.12715E+00	1.58600E-02
9.83510E-01	2.12649E+00	1.58100E-02
9.86648E-01	2.12583E+00	1.57600E-02
9.89783E-01	2.12518E+00	1.57200E-02
9.92914E-01	2.12454E+00	1.56700E-02
9.96049E-01	2.12390E+00	1.56200E-02
9.99188E-01	2.12327E+00	1.55800E-02
1.01641E+00	2.11990E+00	1.53300E-02
1.02322E+00	2.11861E+00	1.52400E-02
1.03003E+00	2.11734E+00	1.51400E-02
1.03684E+00	2.11610E+00	1.50500E-02
1.04366E+00	2.11488E+00	1.49600E-02
1.05047E+00	2.11368E+00	1.48700E-02
1.05729E+00	2.11250E+00	1.47800E-02
1.06411E+00	2.11133E+00	1.46900E-02
1.07093E+00	2.11019E+00	1.46000E-02
1.07775E+00	2.10906E+00	1.45100E-02
1.08457E+00	2.10795E+00	1.44300E-02
1.09140E+00	2.10686E+00	1.43400E-02
1.09823E+00	2.10578E+00	1.42600E-02
1.10506E+00	2.10472E+00	1.41700E-02
1.11189E+00	2.10367E+00	1.40900E-02
1.11872E+00	2.10263E+00	1.40100E-02
1.12554E+00	2.10161E+00	1.39300E-02
1.13238E+00	2.10060E+00	1.38500E-02
1.13922E+00	2.09960E+00	1.37700E-02
1.14605E+00	2.09862E+00	1.37000E-02
1.15289E+00	2.09765E+00	1.36200E-02
1.15973E+00	2.09669E+00	1.35400E-02
1.16657E+00	2.09574E+00	1.34700E-02
1.17340E+00	2.09480E+00	1.33900E-02
1.18025E+00	2.09387E+00	1.33200E-02
1.18709E+00	2.09295E+00	1.32500E-02
1.19394E+00	2.09204E+00	1.31800E-02
1.20079E+00	2.09114E+00	1.31100E-02
1.20763E+00	2.09024E+00	1.30400E-02
1.21448E+00	2.08936E+00	1.29700E-02
1.22134E+00	2.08848E+00	1.29000E-02
1.22819E+00	2.08761E+00	1.28300E-02
1.23504E+00	2.08675E+00	1.27600E-02
1.24190E+00	2.08589E+00	1.27000E-02
1.24876E+00	2.08505E+00	1.26300E-02
1.25561E+00	2.08421E+00	1.25700E-02
1.26248E+00	2.08337E+00	1.25000E-02
1.26933E+00	2.08254E+00	1.24400E-02
1.27620E+00	2.08172E+00	1.23700E-02
1.28306E+00	2.08091E+00	1.23100E-02
1.28993E+00	2.08010E+00	1.22500E-02
1.29680E+00	2.07929E+00	1.21900E-02
1.30366E+00	2.07849E+00	1.21300E-02
1.31053E+00	2.07770E+00	1.20700E-02
1.31740E+00	2.07691E+00	1.20100E-02
1.32428E+00	2.07612E+00	1.19500E-02
1.33115E+00	2.07534E+00	1.18900E-02
1.33803E+00	2.07456E+00	1.18300E-02
1.34489E+00	2.07379E+00	1.17800E-02
1.35178E+00	2.07302E+00	1.17200E-02
1.35866E+00	2.07226E+00	1.16700E-02
1.36554E+00	2.07150E+00	1.16100E-02
1.37242E+00	2.07074E+00	1.15500E-02
1.37930E+00	2.06999E+00	1.15000E-02
1.38618E+00	2.06924E+00	1.14500E-02
1.39307E+00	2.06849E+00	1.13900E-02
1.39995E+00	2.06774E+00	1.13400E-02
1.40685E+00	2.06700E+00	1.12900E-02
1.41375E+00	2.06627E+00	1.12400E-02
1.42063E+00	2.06553E+00	1.11900E-02
1.42752E+00	2.06480E+00	1.11300E-02
1.43442E+00	2.06406E+00	1.10800E-02
1.44131E+00	2.06334E+00	1.10300E-02
1.44821E+00	2.06261E+00	1.09900E-02
1.45511E+00	2.06189E+00	1.09400E-02
1.46201E+00	2.06116E+00	1.08900E-02
1.46890E+00	2.06044E+00	1.08400E-02
1.47581E+00	2.05972E+00	1.07900E-02
1.48271E+00	2.05901E+00	1.07400E-02
1.48962E+00	2.05829E+00	1.07000E-02
1.49653E+00	2.05758E+00	1.06500E-02
1.50344E+00	2.05687E+00	1.06100E-02
1.51034E+00	2.05616E+00	1.05600E-02
1.51726E+00	2.05545E+00	1.05200E-02
1.52418E+00	2.05474E+00	1.04700E-02
1.53108E+00	2.05403E+00	1.04300E-02
1.53800E+00	2.05333E+00	1.03800E-02
1.54492E+00	2.05262E+00	1.03400E-02
1.55184E+00	2.05192E+00	1.03000E-02
1.55877E+00	2.05122E+00	1.02500E-02
1.56567E+00	2.05051E+00	1.02100E-02
1.57261E+00	2.04981E+00	1.01700E-02
1.57952E+00	2.04911E+00	1.01300E-02
1.58645E+00	2.04841E+00	1.00900E-02
1.59338E+00	2.04771E+00	1.00500E-02
1.60031E+00	2.04701E+00	1.00100E-02
1.60724E+00	2.04632E+00	9.96000E-03
1.61417E+00	2.04562E+00	9.92000E-03
1.62109E+00	2.04492E+00	9.88000E-03
1.62803E+00	2.04422E+00	9.85000E-03
1.63496E+00	2.04353E+00	9.81000E-03
1.64189E+00	2.04283E+00	9.77000E-03
1.64884E+00	2.04213E+00	9.73000E-03
1.65577E+00	2.04143E+00	9.69000E-03
1.66272E+00	2.04074E+00	9.66000E-03
1.66966E+00	2.04004E+00	9.62000E-03
1.67659E+00	2.03935E+00	9.58000E-03
1.68354E+00	2.03865E+00	9.54000E-03
