Material: perovskite / 2D HOIP / Song-DJ1
Optical constants. B. Song, J. Hou, H. Wang, S. Sidhik, J. Miao, H. Gu, H. Zhang, S. Liu, Z. Fakhraai, J. Even, J.-C. Blancon, A. D. Mohite, D. Jariwala. Determination of dielectric functions and exciton oscillator strength of two-dimensional hybrid perovskites, ACS Materials Lett. 3, 148-159 (2021)(Numerical data kindly provided by Baokun Song)
Comments: Two-dimensional (2D) hybrid organic−inorganic perovskite (HOIP) semiconductor. Dion−Jacobson (DJ) phase. A'(MA)m-1PbmI3m+1,where A' = 4−(aminomethyl)piperidinium (4AMP), MA = CH3NH3, and m determines the thickness of the lead−iodide perovskite layer.m = 1
Specs: {"n_absolute": true, "wavelength_vacuum": true, "substrate": "glass"}
wavelength (um)	n	k
3.70914E-01	2.11950E+00	1.07555E+00
3.74077E-01	2.17591E+00	1.05910E+00
3.77240E-01	2.22933E+00	1.03750E+00
3.80405E-01	2.27976E+00	1.01136E+00
3.83571E-01	2.32728E+00	9.80890E-01
3.86736E-01	2.37183E+00	9.45980E-01
3.89902E-01	2.41294E+00	9.06240E-01
3.93069E-01	2.44962E+00	8.61400E-01
3.96237E-01	2.48041E+00	8.11620E-01
3.99404E-01	2.50365E+00	7.57830E-01
4.02574E-01	2.51800E+00	7.01770E-01
4.05742E-01	2.52289E+00	6.45800E-01
4.08911E-01	2.51873E+00	5.92360E-01
4.12082E-01	2.50680E+00	5.43490E-01
4.15252E-01	2.48889E+00	5.00530E-01
4.18423E-01	2.46694E+00	4.64030E-01
4.21595E-01	2.44266E+00	4.33940E-01
4.24766E-01	2.41745E+00	4.09770E-01
4.27939E-01	2.39231E+00	3.90840E-01
4.31111E-01	2.36792E+00	3.76380E-01
4.34284E-01	2.34467E+00	3.65700E-01
4.37459E-01	2.32278E+00	3.58130E-01
4.40632E-01	2.30231E+00	3.53140E-01
4.43807E-01	2.28325E+00	3.50290E-01
4.46983E-01	2.26555E+00	3.49220E-01
4.50158E-01	2.24931E+00	3.49500E-01
4.53334E-01	2.23398E+00	3.50460E-01
4.56511E-01	2.21893E+00	3.52240E-01
4.59688E-01	2.20381E+00	3.55090E-01
4.62864E-01	2.18838E+00	3.59340E-01
4.66041E-01	2.17252E+00	3.65430E-01
4.69219E-01	2.15625E+00	3.73860E-01
4.72398E-01	2.13971E+00	3.85170E-01
4.75576E-01	2.12325E+00	3.99910E-01
4.78755E-01	2.10732E+00	4.18540E-01
4.81934E-01	2.09245E+00	4.41510E-01
4.85113E-01	2.07921E+00	4.69260E-01
4.88294E-01	2.06819E+00	5.02340E-01
4.91474E-01	2.06015E+00	5.41520E-01
4.94655E-01	2.05617E+00	5.87960E-01
4.97837E-01	2.05801E+00	6.43280E-01
5.01017E-01	2.06875E+00	7.09570E-01
5.04198E-01	2.09373E+00	7.89140E-01
5.07379E-01	2.14222E+00	8.83600E-01
5.10561E-01	2.22981E+00	9.90810E-01
5.13743E-01	2.38017E+00	1.09706E+00
5.16926E-01	2.61809E+00	1.15966E+00
5.20109E-01	2.92755E+00	1.09079E+00
5.23292E-01	3.17675E+00	8.26920E-01
5.26474E-01	3.21908E+00	4.87860E-01
5.29659E-01	3.10814E+00	2.42470E-01
5.32844E-01	2.96361E+00	1.11950E-01
5.36027E-01	2.83803E+00	5.29800E-02
5.39212E-01	2.74060E+00	3.09500E-02
5.42396E-01	2.66875E+00	2.69800E-02
5.45580E-01	2.61764E+00	2.73500E-02
5.48765E-01	2.57771E+00	2.75800E-02
5.51949E-01	2.54493E+00	2.77200E-02
5.55134E-01	2.51721E+00	2.77800E-02
5.58319E-01	2.49329E+00	2.77800E-02
5.61505E-01	2.47230E+00	2.77300E-02
5.64691E-01	2.45366E+00	2.76400E-02
5.67875E-01	2.43693E+00	2.75300E-02
5.71061E-01	2.42177E+00	2.73800E-02
5.74248E-01	2.40795E+00	2.72200E-02
5.77433E-01	2.39527E+00	2.70400E-02
5.80619E-01	2.38356E+00	2.68400E-02
5.83807E-01	2.37270E+00	2.66300E-02
5.86994E-01	2.36259E+00	2.64100E-02
5.90179E-01	2.35313E+00	2.61900E-02
5.93365E-01	2.34425E+00	2.59600E-02
5.96551E-01	2.33590E+00	2.57300E-02
5.99737E-01	2.32802E+00	2.54900E-02
6.02925E-01	2.32056E+00	2.52500E-02
6.06111E-01	2.31349E+00	2.50100E-02
6.09298E-01	2.30677E+00	2.47700E-02
6.12485E-01	2.30036E+00	2.45300E-02
6.15673E-01	2.29426E+00	2.42900E-02
6.18860E-01	2.28842E+00	2.40500E-02
6.22045E-01	2.28284E+00	2.38100E-02
6.25232E-01	2.27748E+00	2.35800E-02
6.28420E-01	2.27235E+00	2.33400E-02
6.31606E-01	2.26741E+00	2.31100E-02
6.34794E-01	2.26267E+00	2.28800E-02
6.37979E-01	2.25809E+00	2.26600E-02
6.41166E-01	2.25368E+00	2.24300E-02
6.44355E-01	2.24943E+00	2.22100E-02
6.47539E-01	2.24532E+00	2.20000E-02
6.50726E-01	2.24135E+00	2.17800E-02
6.53915E-01	2.23751E+00	2.15700E-02
6.57100E-01	2.23379E+00	2.13600E-02
6.60288E-01	2.23018E+00	2.11600E-02
6.63471E-01	2.22669E+00	2.09500E-02
6.66657E-01	2.22330E+00	2.07500E-02
6.69844E-01	2.22001E+00	2.05600E-02
6.73030E-01	2.21681E+00	2.03700E-02
6.76216E-01	2.21370E+00	2.01700E-02
6.79403E-01	2.21068E+00	1.99900E-02
6.82590E-01	2.20773E+00	1.98000E-02
6.85772E-01	2.20487E+00	1.96200E-02
6.88958E-01	2.20208E+00	1.94500E-02
6.92143E-01	2.19936E+00	1.92700E-02
6.95329E-01	2.19671E+00	1.91000E-02
6.98514E-01	2.19413E+00	1.89300E-02
7.01697E-01	2.19160E+00	1.87600E-02
7.04884E-01	2.18914E+00	1.86000E-02
7.08068E-01	2.18674E+00	1.84400E-02
7.11253E-01	2.18439E+00	1.82800E-02
7.14433E-01	2.18210E+00	1.81200E-02
7.17617E-01	2.17985E+00	1.79700E-02
7.20801E-01	2.17766E+00	1.78200E-02
7.23987E-01	2.17551E+00	1.76700E-02
7.27167E-01	2.17341E+00	1.75200E-02
7.30350E-01	2.17136E+00	1.73800E-02
7.33534E-01	2.16935E+00	1.72300E-02
7.36716E-01	2.16738E+00	1.70900E-02
7.39899E-01	2.16545E+00	1.69600E-02
7.43079E-01	2.16356E+00	1.68200E-02
7.46259E-01	2.16170E+00	1.66900E-02
7.49444E-01	2.15989E+00	1.65600E-02
7.52624E-01	2.15810E+00	1.64300E-02
7.55803E-01	2.15636E+00	1.63000E-02
7.58982E-01	2.15464E+00	1.61800E-02
7.62164E-01	2.15296E+00	1.60500E-02
7.65344E-01	2.15131E+00	1.59300E-02
7.68522E-01	2.14969E+00	1.58100E-02
7.71699E-01	2.14809E+00	1.57000E-02
7.74882E-01	2.14653E+00	1.55800E-02
7.78057E-01	2.14499E+00	1.54700E-02
7.81234E-01	2.14348E+00	1.53600E-02
7.84412E-01	2.14200E+00	1.52400E-02
7.87591E-01	2.14054E+00	1.51300E-02
7.90766E-01	2.13911E+00	1.50300E-02
7.93941E-01	2.13770E+00	1.49200E-02
7.97121E-01	2.13631E+00	1.48200E-02
8.00296E-01	2.13495E+00	1.47200E-02
8.03470E-01	2.13361E+00	1.46100E-02
8.06643E-01	2.13229E+00	1.45100E-02
8.09820E-01	2.13099E+00	1.44200E-02
8.12990E-01	2.12971E+00	1.43200E-02
8.16163E-01	2.12845E+00	1.42200E-02
8.19335E-01	2.12721E+00	1.41300E-02
8.22509E-01	2.12599E+00	1.40400E-02
8.25681E-01	2.12479E+00	1.39400E-02
8.28854E-01	2.12360E+00	1.38500E-02
8.32025E-01	2.12244E+00	1.37600E-02
8.35192E-01	2.12129E+00	1.36800E-02
8.38366E-01	2.12015E+00	1.35900E-02
8.41535E-01	2.11904E+00	1.35000E-02
8.44700E-01	2.11794E+00	1.34200E-02
8.47871E-01	2.11685E+00	1.33400E-02
8.51037E-01	2.11578E+00	1.32500E-02
8.54203E-01	2.11473E+00	1.31700E-02
8.57375E-01	2.11368E+00	1.30900E-02
8.60541E-01	2.11266E+00	1.30100E-02
8.63706E-01	2.11165E+00	1.29300E-02
8.66871E-01	2.11065E+00	1.28600E-02
8.70034E-01	2.10966E+00	1.27800E-02
8.73196E-01	2.10869E+00	1.27100E-02
8.76362E-01	2.10773E+00	1.26300E-02
8.79526E-01	2.10678E+00	1.25600E-02
8.82689E-01	2.10584E+00	1.24900E-02
8.85848E-01	2.10492E+00	1.24200E-02
8.89005E-01	2.10401E+00	1.23400E-02
8.92172E-01	2.10311E+00	1.22700E-02
8.95329E-01	2.10222E+00	1.22100E-02
8.98488E-01	2.10134E+00	1.21400E-02
9.01644E-01	2.10047E+00	1.20700E-02
9.04803E-01	2.09961E+00	1.20000E-02
9.07957E-01	2.09877E+00	1.19400E-02
9.11113E-01	2.09793E+00	1.18700E-02
9.14270E-01	2.09710E+00	1.18100E-02
9.17430E-01	2.09628E+00	1.17500E-02
9.20584E-01	2.09547E+00	1.16800E-02
9.23732E-01	2.09468E+00	1.16200E-02
9.26888E-01	2.09389E+00	1.15600E-02
9.30037E-01	2.09310E+00	1.15000E-02
9.33187E-01	2.09233E+00	1.14400E-02
9.36338E-01	2.09157E+00	1.13800E-02
9.39488E-01	2.09081E+00	1.13200E-02
9.42638E-01	2.09007E+00	1.12700E-02
9.45787E-01	2.08933E+00	1.12100E-02
9.48936E-01	2.08859E+00	1.11500E-02
9.52084E-01	2.08787E+00	1.11000E-02
9.55231E-01	2.08716E+00	1.10400E-02
9.58376E-01	2.08645E+00	1.09900E-02
9.61520E-01	2.08575E+00	1.09300E-02
9.64662E-01	2.08505E+00	1.08800E-02
9.67802E-01	2.08437E+00	1.08300E-02
9.70948E-01	2.08369E+00	1.07700E-02
9.74091E-01	2.08301E+00	1.07200E-02
9.77231E-01	2.08235E+00	1.06700E-02
9.80368E-01	2.08169E+00	1.06200E-02
9.83510E-01	2.08104E+00	1.05700E-02
9.86648E-01	2.08039E+00	1.05200E-02
9.89783E-01	2.07975E+00	1.04700E-02
9.92914E-01	2.07911E+00	1.04200E-02
9.96049E-01	2.07849E+00	1.03700E-02
9.99188E-01	2.07786E+00	1.03300E-02
1.01641E+00	2.07454E+00	1.00700E-02
1.02322E+00	2.07327E+00	9.98000E-03
1.03003E+00	2.07203E+00	9.88000E-03
1.03684E+00	2.07080E+00	9.79000E-03
1.04366E+00	2.06960E+00	9.70000E-03
1.05047E+00	2.06842E+00	9.61000E-03
1.05729E+00	2.06726E+00	9.52000E-03
1.06411E+00	2.06612E+00	9.44000E-03
1.07093E+00	2.06499E+00	9.35000E-03
1.07775E+00	2.06389E+00	9.27000E-03
1.08457E+00	2.06280E+00	9.19000E-03
1.09140E+00	2.06173E+00	9.11000E-03
1.09823E+00	2.06068E+00	9.03000E-03
1.10506E+00	2.05964E+00	8.96000E-03
1.11189E+00	2.05862E+00	8.88000E-03
1.11872E+00	2.05761E+00	8.81000E-03
1.12554E+00	2.05661E+00	8.73000E-03
1.13238E+00	2.05563E+00	8.66000E-03
1.13922E+00	2.05467E+00	8.60000E-03
1.14605E+00	2.05371E+00	8.53000E-03
1.15289E+00	2.05277E+00	8.46000E-03
1.15973E+00	2.05184E+00	8.39000E-03
1.16657E+00	2.05093E+00	8.33000E-03
1.17340E+00	2.05002E+00	8.26000E-03
1.18025E+00	2.04913E+00	8.20000E-03
1.18709E+00	2.04824E+00	8.14000E-03
1.19394E+00	2.04737E+00	8.08000E-03
1.20079E+00	2.04651E+00	8.02000E-03
1.20763E+00	2.04565E+00	7.96000E-03
1.21448E+00	2.04481E+00	7.90000E-03
1.22134E+00	2.04398E+00	7.84000E-03
1.22819E+00	2.04315E+00	7.79000E-03
1.23504E+00	2.04233E+00	7.73000E-03
1.24190E+00	2.04152E+00	7.68000E-03
1.24876E+00	2.04072E+00	7.62000E-03
1.25561E+00	2.03993E+00	7.57000E-03
1.26248E+00	2.03915E+00	7.52000E-03
1.26933E+00	2.03837E+00	7.47000E-03
1.27620E+00	2.03760E+00	7.42000E-03
1.28306E+00	2.03683E+00	7.37000E-03
1.28993E+00	2.03607E+00	7.32000E-03
1.29680E+00	2.03532E+00	7.27000E-03
1.30366E+00	2.03458E+00	7.22000E-03
1.31053E+00	2.03384E+00	7.17000E-03
1.31740E+00	2.03311E+00	7.13000E-03
1.32428E+00	2.03239E+00	7.08000E-03
1.33115E+00	2.03166E+00	7.04000E-03
1.33803E+00	2.03095E+00	6.99000E-03
1.34489E+00	2.03024E+00	6.95000E-03
1.35178E+00	2.02954E+00	6.90000E-03
1.35866E+00	2.02884E+00	6.86000E-03
1.36554E+00	2.02814E+00	6.82000E-03
1.37242E+00	2.02745E+00	6.78000E-03
1.37930E+00	2.02677E+00	6.74000E-03
1.38618E+00	2.02609E+00	6.70000E-03
1.39307E+00	2.02541E+00	6.66000E-03
1.39995E+00	2.02474E+00	6.62000E-03
1.40685E+00	2.02407E+00	6.58000E-03
1.41375E+00	2.02340E+00	6.54000E-03
1.42063E+00	2.02274E+00	6.50000E-03
1.42752E+00	2.02208E+00	6.47000E-03
1.43442E+00	2.02143E+00	6.43000E-03
1.44131E+00	2.02078E+00	6.39000E-03
1.44821E+00	2.02013E+00	6.36000E-03
1.45511E+00	2.01949E+00	6.32000E-03
1.46201E+00	2.01885E+00	6.28000E-03
1.46890E+00	2.01821E+00	6.25000E-03
1.47581E+00	2.01758E+00	6.22000E-03
1.48271E+00	2.01694E+00	6.18000E-03
1.48962E+00	2.01632E+00	6.15000E-03
1.49653E+00	2.01569E+00	6.11000E-03
1.50344E+00	2.01506E+00	6.08000E-03
1.51034E+00	2.01444E+00	6.05000E-03
1.51726E+00	2.01382E+00	6.02000E-03
1.52418E+00	2.01321E+00	5.99000E-03
1.53108E+00	2.01259E+00	5.96000E-03
1.53800E+00	2.01198E+00	5.92000E-03
1.54492E+00	2.01137E+00	5.89000E-03
1.55184E+00	2.01076E+00	5.86000E-03
1.55877E+00	2.01015E+00	5.83000E-03
1.56567E+00	2.00955E+00	5.80000E-03
1.57261E+00	2.00895E+00	5.77000E-03
1.57952E+00	2.00834E+00	5.75000E-03
1.58645E+00	2.00774E+00	5.72000E-03
1.59338E+00	2.00715E+00	5.69000E-03
1.60031E+00	2.00655E+00	5.66000E-03
1.60724E+00	2.00596E+00	5.63000E-03
1.61417E+00	2.00536E+00	5.60000E-03
1.62109E+00	2.00477E+00	5.58000E-03
1.62803E+00	2.00418E+00	5.55000E-03
1.63496E+00	2.00359E+00	5.53000E-03
1.64189E+00	2.00300E+00	5.50000E-03
1.64884E+00	2.00241E+00	5.47000E-03
1.65577E+00	2.00183E+00	5.45000E-03
1.66272E+00	2.00124E+00	5.42000E-03
1.66966E+00	2.00066E+00	5.40000E-03
1.67659E+00	2.00007E+00	5.37000E-03
1.68354E+00	1.99949E+00	5.35000E-03
