Material: perovskite / 2D HOIP / Song-RP3
Optical constants. B. Song, J. Hou, H. Wang, S. Sidhik, J. Miao, H. Gu, H. Zhang, S. Liu, Z. Fakhraai, J. Even, J.-C. Blancon, A. D. Mohite, D. Jariwala. Determination of dielectric functions and exciton oscillator strength of two-dimensional hybrid perovskites, ACS Materials Lett. 3, 148-159 (2021)(Numerical data kindly provided by Baokun Song)
Comments: Two-dimensional (2D) hybrid organic−inorganic perovskite (HOIP) semiconductor. Ruddlesden–Popper (RP) phase. (BA)2(MA)n-1PbnI3n-1,where BA = CH3(CH2)3NH3, MA = CH3NH3, and n determines the thickness of the lead−iodide perovskite layer.n = 3
Specs: {"n_absolute": true, "wavelength_vacuum": true, "substrate": "glass"}
wavelength (um)	n	k
3.70914E-01	2.07872E+00	1.06430E+00
3.74077E-01	2.10071E+00	1.04322E+00
3.77240E-01	2.11921E+00	1.02271E+00
3.80405E-01	2.13462E+00	1.00332E+00
3.83571E-01	2.14739E+00	9.85480E-01
3.86736E-01	2.15804E+00	9.69530E-01
3.89902E-01	2.16715E+00	9.55710E-01
3.93069E-01	2.17529E+00	9.44120E-01
3.96237E-01	2.18307E+00	9.34790E-01
3.99404E-01	2.19109E+00	9.27590E-01
4.02574E-01	2.19992E+00	9.22260E-01
4.05742E-01	2.21010E+00	9.18400E-01
4.08911E-01	2.22204E+00	9.15460E-01
4.12082E-01	2.23599E+00	9.12750E-01
4.15252E-01	2.25199E+00	9.09500E-01
4.18423E-01	2.26983E+00	9.04950E-01
4.21595E-01	2.28902E+00	8.98410E-01
4.24766E-01	2.30885E+00	8.89390E-01
4.27939E-01	2.32848E+00	8.77710E-01
4.31111E-01	2.34704E+00	8.63470E-01
4.34284E-01	2.36379E+00	8.47100E-01
4.37459E-01	2.37821E+00	8.29200E-01
4.40632E-01	2.39004E+00	8.10510E-01
4.43807E-01	2.39926E+00	7.91740E-01
4.46983E-01	2.40606E+00	7.73490E-01
4.50158E-01	2.41078E+00	7.56260E-01
4.53334E-01	2.41382E+00	7.40390E-01
4.56511E-01	2.41560E+00	7.26090E-01
4.59688E-01	2.41655E+00	7.13450E-01
4.62864E-01	2.41703E+00	7.02480E-01
4.66041E-01	2.41739E+00	6.93110E-01
4.69219E-01	2.41792E+00	6.85250E-01
4.72398E-01	2.41889E+00	6.78750E-01
4.75576E-01	2.42051E+00	6.73460E-01
4.78755E-01	2.42298E+00	6.69200E-01
4.81934E-01	2.42646E+00	6.65780E-01
4.85113E-01	2.43109E+00	6.62980E-01
4.88294E-01	2.43700E+00	6.60580E-01
4.91474E-01	2.44428E+00	6.58330E-01
4.94655E-01	2.45299E+00	6.55950E-01
4.97837E-01	2.46317E+00	6.53140E-01
5.01017E-01	2.47480E+00	6.49590E-01
5.04198E-01	2.48782E+00	6.44930E-01
5.07379E-01	2.50208E+00	6.38800E-01
5.10561E-01	2.51736E+00	6.30840E-01
5.13743E-01	2.53332E+00	6.20690E-01
5.16926E-01	2.54954E+00	6.08050E-01
5.20109E-01	2.56547E+00	5.92700E-01
5.23292E-01	2.58047E+00	5.74540E-01
5.26474E-01	2.59387E+00	5.53640E-01
5.29659E-01	2.60494E+00	5.30250E-01
5.32844E-01	2.61306E+00	5.04830E-01
5.36027E-01	2.61767E+00	4.78010E-01
5.39212E-01	2.61842E+00	4.50570E-01
5.42396E-01	2.61518E+00	4.23370E-01
5.45580E-01	2.60802E+00	3.97240E-01
5.48765E-01	2.59724E+00	3.72990E-01
5.51949E-01	2.58327E+00	3.51260E-01
5.55134E-01	2.56664E+00	3.32580E-01
5.58319E-01	2.54795E+00	3.17310E-01
5.61505E-01	2.52774E+00	3.05700E-01
5.64691E-01	2.50656E+00	2.97900E-01
5.67875E-01	2.48485E+00	2.94030E-01
5.71061E-01	2.46303E+00	2.94180E-01
5.74248E-01	2.44144E+00	2.98550E-01
5.77433E-01	2.42042E+00	3.07420E-01
5.80619E-01	2.40039E+00	3.21280E-01
5.83807E-01	2.38188E+00	3.40900E-01
5.86994E-01	2.36583E+00	3.67420E-01
5.90179E-01	2.35397E+00	4.02480E-01
5.93365E-01	2.34942E+00	4.47730E-01
5.96551E-01	2.35721E+00	5.05300E-01
5.99737E-01	2.38759E+00	5.76050E-01
6.02925E-01	2.45778E+00	6.53270E-01
6.06111E-01	2.58666E+00	7.09600E-01
6.09298E-01	2.76424E+00	6.88910E-01
6.12485E-01	2.91263E+00	5.56320E-01
6.15673E-01	2.95417E+00	3.76110E-01
6.18860E-01	2.91108E+00	2.34420E-01
6.22045E-01	2.84092E+00	1.49010E-01
6.25232E-01	2.77360E+00	1.02810E-01
6.28420E-01	2.71715E+00	7.90100E-02
6.31606E-01	2.67162E+00	6.73400E-02
6.34794E-01	2.63519E+00	6.22300E-02
6.37979E-01	2.60617E+00	6.06800E-02
6.41166E-01	2.58329E+00	6.01500E-02
6.44355E-01	2.56418E+00	5.95500E-02
6.47539E-01	2.54767E+00	5.89200E-02
6.50726E-01	2.53312E+00	5.82600E-02
6.53915E-01	2.52011E+00	5.75800E-02
6.57100E-01	2.50834E+00	5.69000E-02
6.60288E-01	2.49760E+00	5.62100E-02
6.63471E-01	2.48771E+00	5.55200E-02
6.66657E-01	2.47855E+00	5.48400E-02
6.69844E-01	2.47002E+00	5.41600E-02
6.73030E-01	2.46204E+00	5.34800E-02
6.76216E-01	2.45455E+00	5.28200E-02
6.79403E-01	2.44748E+00	5.21600E-02
6.82590E-01	2.44080E+00	5.15100E-02
6.85772E-01	2.43446E+00	5.08700E-02
6.88958E-01	2.42843E+00	5.02300E-02
6.92143E-01	2.42268E+00	4.96100E-02
6.95329E-01	2.41719E+00	4.89900E-02
6.98514E-01	2.41194E+00	4.83900E-02
7.01697E-01	2.40691E+00	4.78000E-02
7.04884E-01	2.40208E+00	4.72100E-02
7.08068E-01	2.39743E+00	4.66400E-02
7.11253E-01	2.39295E+00	4.60700E-02
7.14433E-01	2.38864E+00	4.55200E-02
7.17617E-01	2.38448E+00	4.49700E-02
7.20801E-01	2.38046E+00	4.44300E-02
7.23987E-01	2.37656E+00	4.39100E-02
7.27167E-01	2.37280E+00	4.33900E-02
7.30350E-01	2.36915E+00	4.28800E-02
7.33534E-01	2.36562E+00	4.23700E-02
7.36716E-01	2.36218E+00	4.18800E-02
7.39899E-01	2.35885E+00	4.14000E-02
7.43079E-01	2.35561E+00	4.09200E-02
7.46259E-01	2.35246E+00	4.04500E-02
7.49444E-01	2.34939E+00	3.99900E-02
7.52624E-01	2.34641E+00	3.95400E-02
7.55803E-01	2.34350E+00	3.90900E-02
7.58982E-01	2.34067E+00	3.86500E-02
7.62164E-01	2.33790E+00	3.82200E-02
7.65344E-01	2.33521E+00	3.78000E-02
7.68522E-01	2.33258E+00	3.73800E-02
7.71699E-01	2.33001E+00	3.69700E-02
7.74882E-01	2.32750E+00	3.65700E-02
7.78057E-01	2.32504E+00	3.61700E-02
7.81234E-01	2.32264E+00	3.57800E-02
7.84412E-01	2.32030E+00	3.53900E-02
7.87591E-01	2.31800E+00	3.50100E-02
7.90766E-01	2.31575E+00	3.46400E-02
7.93941E-01	2.31355E+00	3.42700E-02
7.97121E-01	2.31140E+00	3.39100E-02
8.00296E-01	2.30929E+00	3.35600E-02
8.03470E-01	2.30722E+00	3.32100E-02
8.06643E-01	2.30519E+00	3.28600E-02
8.09820E-01	2.30320E+00	3.25200E-02
8.12990E-01	2.30125E+00	3.21900E-02
8.16163E-01	2.29934E+00	3.18600E-02
8.19335E-01	2.29746E+00	3.15300E-02
8.22509E-01	2.29562E+00	3.12100E-02
8.25681E-01	2.29380E+00	3.09000E-02
8.28854E-01	2.29203E+00	3.05900E-02
8.32025E-01	2.29028E+00	3.02800E-02
8.35192E-01	2.28857E+00	2.99800E-02
8.38366E-01	2.28688E+00	2.96800E-02
8.41535E-01	2.28522E+00	2.93900E-02
8.44700E-01	2.28359E+00	2.91000E-02
8.47871E-01	2.28199E+00	2.88200E-02
8.51037E-01	2.28042E+00	2.85400E-02
8.54203E-01	2.27886E+00	2.82600E-02
8.57375E-01	2.27734E+00	2.79900E-02
8.60541E-01	2.27584E+00	2.77200E-02
8.63706E-01	2.27436E+00	2.74500E-02
8.66871E-01	2.27291E+00	2.71900E-02
8.70034E-01	2.27148E+00	2.69300E-02
8.73196E-01	2.27007E+00	2.66800E-02
8.76362E-01	2.26868E+00	2.64300E-02
8.79526E-01	2.26731E+00	2.61800E-02
8.82689E-01	2.26596E+00	2.59300E-02
8.85848E-01	2.26464E+00	2.56900E-02
8.89005E-01	2.26333E+00	2.54500E-02
8.92172E-01	2.26204E+00	2.52200E-02
8.95329E-01	2.26077E+00	2.49900E-02
8.98488E-01	2.25951E+00	2.47600E-02
9.01644E-01	2.25828E+00	2.45300E-02
9.04803E-01	2.25706E+00	2.43100E-02
9.07957E-01	2.25585E+00	2.40900E-02
9.11113E-01	2.25467E+00	2.38700E-02
9.14270E-01	2.25350E+00	2.36600E-02
9.17430E-01	2.25235E+00	2.34400E-02
9.20584E-01	2.25121E+00	2.32300E-02
9.23732E-01	2.25008E+00	2.30300E-02
9.26888E-01	2.24897E+00	2.28200E-02
9.30037E-01	2.24788E+00	2.26200E-02
9.33187E-01	2.24680E+00	2.24200E-02
9.36338E-01	2.24573E+00	2.22300E-02
9.39488E-01	2.24467E+00	2.20300E-02
9.42638E-01	2.24363E+00	2.18400E-02
9.45787E-01	2.24260E+00	2.16500E-02
9.48936E-01	2.24159E+00	2.14600E-02
9.52084E-01	2.24058E+00	2.12800E-02
9.55231E-01	2.23959E+00	2.10900E-02
9.58376E-01	2.23861E+00	2.09100E-02
9.61520E-01	2.23764E+00	2.07300E-02
9.64662E-01	2.23668E+00	2.05600E-02
9.67802E-01	2.23574E+00	2.03800E-02
9.70948E-01	2.23480E+00	2.02100E-02
9.74091E-01	2.23388E+00	2.00400E-02
9.77231E-01	2.23296E+00	1.98700E-02
9.80368E-01	2.23206E+00	1.97000E-02
9.83510E-01	2.23116E+00	1.95400E-02
9.86648E-01	2.23028E+00	1.93800E-02
9.89783E-01	2.22941E+00	1.92100E-02
9.92914E-01	2.22854E+00	1.90500E-02
9.96049E-01	2.22769E+00	1.89000E-02
9.99188E-01	2.22684E+00	1.87400E-02
1.01641E+00	2.22234E+00	1.79100E-02
1.02322E+00	2.22063E+00	1.76000E-02
1.03003E+00	2.21895E+00	1.72900E-02
1.03684E+00	2.21731E+00	1.69900E-02
1.04366E+00	2.21570E+00	1.67000E-02
1.05047E+00	2.21412E+00	1.64100E-02
1.05729E+00	2.21257E+00	1.61300E-02
1.06411E+00	2.21105E+00	1.58600E-02
1.07093E+00	2.20956E+00	1.55900E-02
1.07775E+00	2.20810E+00	1.53200E-02
1.08457E+00	2.20666E+00	1.50600E-02
1.09140E+00	2.20525E+00	1.48100E-02
1.09823E+00	2.20387E+00	1.45700E-02
1.10506E+00	2.20251E+00	1.43200E-02
1.11189E+00	2.20117E+00	1.40900E-02
1.11872E+00	2.19985E+00	1.38500E-02
1.12554E+00	2.19856E+00	1.36200E-02
1.13238E+00	2.19728E+00	1.34000E-02
1.13922E+00	2.19603E+00	1.31800E-02
1.14605E+00	2.19480E+00	1.29700E-02
1.15289E+00	2.19358E+00	1.27600E-02
1.15973E+00	2.19239E+00	1.25500E-02
1.16657E+00	2.19121E+00	1.23500E-02
1.17340E+00	2.19005E+00	1.21500E-02
1.18025E+00	2.18891E+00	1.19600E-02
1.18709E+00	2.18778E+00	1.17600E-02
1.19394E+00	2.18667E+00	1.15800E-02
1.20079E+00	2.18557E+00	1.13900E-02
1.20763E+00	2.18449E+00	1.12100E-02
1.21448E+00	2.18342E+00	1.10400E-02
1.22134E+00	2.18236E+00	1.08600E-02
1.22819E+00	2.18133E+00	1.06900E-02
1.23504E+00	2.18030E+00	1.05300E-02
1.24190E+00	2.17928E+00	1.03600E-02
1.24876E+00	2.17828E+00	1.02000E-02
1.25561E+00	2.17729E+00	1.00400E-02
1.26248E+00	2.17632E+00	9.89000E-03
1.26933E+00	2.17535E+00	9.73000E-03
1.27620E+00	2.17439E+00	9.58000E-03
1.28306E+00	2.17345E+00	9.44000E-03
1.28993E+00	2.17251E+00	9.29000E-03
1.29680E+00	2.17159E+00	9.15000E-03
1.30366E+00	2.17068E+00	9.01000E-03
1.31053E+00	2.16977E+00	8.87000E-03
1.31740E+00	2.16888E+00	8.74000E-03
1.32428E+00	2.16799E+00	8.60000E-03
1.33115E+00	2.16711E+00	8.47000E-03
1.33803E+00	2.16624E+00	8.35000E-03
1.34489E+00	2.16538E+00	8.22000E-03
1.35178E+00	2.16453E+00	8.10000E-03
1.35866E+00	2.16369E+00	7.98000E-03
1.36554E+00	2.16285E+00	7.86000E-03
1.37242E+00	2.16202E+00	7.74000E-03
1.37930E+00	2.16120E+00	7.62000E-03
1.38618E+00	2.16039E+00	7.51000E-03
1.39307E+00	2.15958E+00	7.40000E-03
1.39995E+00	2.15878E+00	7.29000E-03
1.40685E+00	2.15799E+00	7.18000E-03
1.41375E+00	2.15720E+00	7.08000E-03
1.42063E+00	2.15642E+00	6.97000E-03
1.42752E+00	2.15564E+00	6.87000E-03
1.43442E+00	2.15487E+00	6.77000E-03
1.44131E+00	2.15411E+00	6.67000E-03
1.44821E+00	2.15335E+00	6.58000E-03
1.45511E+00	2.15260E+00	6.48000E-03
1.46201E+00	2.15186E+00	6.39000E-03
1.46890E+00	2.15111E+00	6.29000E-03
1.47581E+00	2.15038E+00	6.20000E-03
1.48271E+00	2.14965E+00	6.11000E-03
1.48962E+00	2.14892E+00	6.03000E-03
1.49653E+00	2.14820E+00	5.94000E-03
1.50344E+00	2.14749E+00	5.85000E-03
1.51034E+00	2.14678E+00	5.77000E-03
1.51726E+00	2.14607E+00	5.69000E-03
1.52418E+00	2.14537E+00	5.60000E-03
1.53108E+00	2.14467E+00	5.52000E-03
1.53800E+00	2.14397E+00	5.44000E-03
1.54492E+00	2.14328E+00	5.37000E-03
1.55184E+00	2.14260E+00	5.29000E-03
1.55877E+00	2.14191E+00	5.21000E-03
1.56567E+00	2.14123E+00	5.13000E-03
1.57261E+00	2.14056E+00	5.06000E-03
1.57952E+00	2.13989E+00	4.99000E-03
1.58645E+00	2.13922E+00	4.91000E-03
1.59338E+00	2.13855E+00	4.84000E-03
1.60031E+00	2.13789E+00	4.77000E-03
1.60724E+00	2.13723E+00	4.70000E-03
1.61417E+00	2.13657E+00	4.63000E-03
1.62109E+00	2.13592E+00	4.56000E-03
1.62803E+00	2.13526E+00	4.50000E-03
1.63496E+00	2.13462E+00	4.43000E-03
1.64189E+00	2.13397E+00	4.37000E-03
1.64884E+00	2.13333E+00	4.30000E-03
1.65577E+00	2.13268E+00	4.24000E-03
1.66272E+00	2.13205E+00	4.17000E-03
1.66966E+00	2.13141E+00	4.11000E-03
1.67659E+00	2.13077E+00	4.05000E-03
1.68354E+00	2.13014E+00	3.99000E-03
