Material: perovskite / 2D HOIP / Song-DJ3
Optical constants. B. Song, J. Hou, H. Wang, S. Sidhik, J. Miao, H. Gu, H. Zhang, S. Liu, Z. Fakhraai, J. Even, J.-C. Blancon, A. D. Mohite, D. Jariwala. Determination of dielectric functions and exciton oscillator strength of two-dimensional hybrid perovskites, ACS Materials Lett. 3, 148-159 (2021)(Numerical data kindly provided by Baokun Song)
Comments: Two-dimensional (2D) hybrid organic−inorganic perovskite (HOIP) semiconductor. Dion−Jacobson (DJ) phase. A'(MA)m-1PbmI3m+1,where A' = 4−(aminomethyl)piperidinium (4AMP), MA = CH3NH3, and m determines the thickness of the lead−iodide perovskite layer.m = 3
Specs: {"n_absolute": true, "wavelength_vacuum": true, "substrate": "glass"}
wavelength (um)	n	k
3.70914E-01	1.93717E+00	1.16725E+00
3.74077E-01	2.00750E+00	1.15887E+00
3.77240E-01	2.07375E+00	1.13992E+00
3.80405E-01	2.13356E+00	1.11188E+00
3.83571E-01	2.18515E+00	1.07690E+00
3.86736E-01	2.22758E+00	1.03754E+00
3.89902E-01	2.26078E+00	9.96360E-01
3.93069E-01	2.28548E+00	9.55660E-01
3.96237E-01	2.30295E+00	9.17190E-01
3.99404E-01	2.31478E+00	8.82130E-01
4.02574E-01	2.32262E+00	8.50990E-01
4.05742E-01	2.32801E+00	8.23780E-01
4.08911E-01	2.33221E+00	8.00040E-01
4.12082E-01	2.33612E+00	7.79060E-01
4.15252E-01	2.34019E+00	7.59960E-01
4.18423E-01	2.34449E+00	7.41950E-01
4.21595E-01	2.34876E+00	7.24410E-01
4.24766E-01	2.35255E+00	7.07030E-01
4.27939E-01	2.35540E+00	6.89790E-01
4.31111E-01	2.35694E+00	6.72960E-01
4.34284E-01	2.35703E+00	6.56930E-01
4.37459E-01	2.35572E+00	6.42140E-01
4.40632E-01	2.35325E+00	6.28960E-01
4.43807E-01	2.35000E+00	6.17670E-01
4.46983E-01	2.34639E+00	6.08380E-01
4.50158E-01	2.34285E+00	6.01100E-01
4.53334E-01	2.33980E+00	5.95740E-01
4.56511E-01	2.33760E+00	5.92100E-01
4.59688E-01	2.33657E+00	5.89930E-01
4.62864E-01	2.33693E+00	5.88930E-01
4.66041E-01	2.33888E+00	5.88760E-01
4.69219E-01	2.34253E+00	5.89050E-01
4.72398E-01	2.34792E+00	5.89450E-01
4.75576E-01	2.35503E+00	5.89550E-01
4.78755E-01	2.36376E+00	5.89010E-01
4.81934E-01	2.37394E+00	5.87460E-01
4.85113E-01	2.38533E+00	5.84600E-01
4.88294E-01	2.39763E+00	5.80150E-01
4.91474E-01	2.41046E+00	5.73920E-01
4.94655E-01	2.42343E+00	5.65790E-01
4.97837E-01	2.43610E+00	5.55750E-01
5.01017E-01	2.44803E+00	5.43860E-01
5.04198E-01	2.45881E+00	5.30310E-01
5.07379E-01	2.46807E+00	5.15380E-01
5.10561E-01	2.47551E+00	4.99410E-01
5.13743E-01	2.48090E+00	4.82840E-01
5.16926E-01	2.48411E+00	4.66150E-01
5.20109E-01	2.48513E+00	4.49880E-01
5.23292E-01	2.48404E+00	4.34590E-01
5.26474E-01	2.48110E+00	4.20840E-01
5.29659E-01	2.47671E+00	4.09260E-01
5.32844E-01	2.47154E+00	4.00430E-01
5.36027E-01	2.46662E+00	3.94830E-01
5.39212E-01	2.46346E+00	3.92650E-01
5.42396E-01	2.46409E+00	3.93280E-01
5.45580E-01	2.47063E+00	3.94580E-01
5.48765E-01	2.48384E+00	3.92440E-01
5.51949E-01	2.50105E+00	3.82080E-01
5.55134E-01	2.51597E+00	3.61610E-01
5.58319E-01	2.52261E+00	3.34370E-01
5.61505E-01	2.51922E+00	3.06400E-01
5.64691E-01	2.50789E+00	2.82300E-01
5.67875E-01	2.49183E+00	2.63960E-01
5.71061E-01	2.47357E+00	2.51540E-01
5.74248E-01	2.45474E+00	2.44550E-01
5.77433E-01	2.43629E+00	2.42470E-01
5.80619E-01	2.41886E+00	2.45010E-01
5.83807E-01	2.40299E+00	2.52100E-01
5.86994E-01	2.38935E+00	2.63960E-01
5.90179E-01	2.37899E+00	2.80960E-01
5.93365E-01	2.37355E+00	3.03540E-01
5.96551E-01	2.37567E+00	3.31820E-01
5.99737E-01	2.38930E+00	3.64860E-01
6.02925E-01	2.41961E+00	3.99090E-01
6.06111E-01	2.47116E+00	4.26070E-01
6.09298E-01	2.54281E+00	4.31610E-01
6.12485E-01	2.62087E+00	4.01610E-01
6.15673E-01	2.68113E+00	3.35720E-01
6.18860E-01	2.70623E+00	2.52770E-01
6.22045E-01	2.69824E+00	1.75600E-01
6.25232E-01	2.67053E+00	1.15740E-01
6.28420E-01	2.63537E+00	7.37600E-02
6.31606E-01	2.59982E+00	4.58200E-02
6.34794E-01	2.56692E+00	2.77300E-02
6.37979E-01	2.53763E+00	1.62700E-02
6.41166E-01	2.51195E+00	9.20000E-03
6.44355E-01	2.48956E+00	5.05000E-03
6.47539E-01	2.47007E+00	2.87000E-03
6.50726E-01	2.45316E+00	2.01000E-03
6.53915E-01	2.43865E+00	1.86000E-03
6.57100E-01	2.42598E+00	1.77000E-03
6.60288E-01	2.41462E+00	1.68000E-03
6.63471E-01	2.40428E+00	1.60000E-03
6.66657E-01	2.39478E+00	1.51000E-03
6.69844E-01	2.38598E+00	1.44000E-03
6.73030E-01	2.37779E+00	1.36000E-03
6.76216E-01	2.37012E+00	1.29000E-03
6.79403E-01	2.36291E+00	1.22000E-03
6.82590E-01	2.35610E+00	1.15000E-03
6.85772E-01	2.34966E+00	1.09000E-03
6.88958E-01	2.34354E+00	1.03000E-03
6.92143E-01	2.33772E+00	9.69000E-04
6.95329E-01	2.33216E+00	9.13000E-04
6.98514E-01	2.32685E+00	8.59000E-04
7.01697E-01	2.32177E+00	8.08000E-04
7.04884E-01	2.31689E+00	7.59000E-04
7.08068E-01	2.31220E+00	7.11000E-04
7.11253E-01	2.30769E+00	6.66000E-04
7.14433E-01	2.30335E+00	6.23000E-04
7.17617E-01	2.29916E+00	5.82000E-04
7.20801E-01	2.29512E+00	5.43000E-04
7.23987E-01	2.29121E+00	5.06000E-04
7.27167E-01	2.28742E+00	4.70000E-04
7.30350E-01	2.28376E+00	4.36000E-04
7.33534E-01	2.28021E+00	4.04000E-04
7.36716E-01	2.27677E+00	3.73000E-04
7.39899E-01	2.27343E+00	3.44000E-04
7.43079E-01	2.27019E+00	3.17000E-04
7.46259E-01	2.26703E+00	2.90000E-04
7.49444E-01	2.26396E+00	2.66000E-04
7.52624E-01	2.26098E+00	2.42000E-04
7.55803E-01	2.25807E+00	2.20000E-04
7.58982E-01	2.25524E+00	1.99000E-04
7.62164E-01	2.25248E+00	1.80000E-04
7.65344E-01	2.24979E+00	1.61000E-04
7.68522E-01	2.24716E+00	1.44000E-04
7.71699E-01	2.24460E+00	1.28000E-04
7.74882E-01	2.24210E+00	1.13000E-04
7.78057E-01	2.23965E+00	9.90000E-05
7.81234E-01	2.23726E+00	8.70000E-05
7.84412E-01	2.23493E+00	7.50000E-05
7.87591E-01	2.23264E+00	6.40000E-05
7.90766E-01	2.23041E+00	5.40000E-05
7.93941E-01	2.22822E+00	4.50000E-05
7.97121E-01	2.22607E+00	3.70000E-05
8.00296E-01	2.22398E+00	2.90000E-05
8.03470E-01	2.22192E+00	2.30000E-05
8.06643E-01	2.21991E+00	1.80000E-05
8.09820E-01	2.21794E+00	1.30000E-05
8.12990E-01	2.21600E+00	9.00000E-06
8.16163E-01	2.21411E+00	6.00000E-06
8.19335E-01	2.21224E+00	3.00000E-06
8.22509E-01	2.21042E+00	1.00000E-06
8.25681E-01	2.20863E+00	0.00000E+00
8.28854E-01	2.20687E+00	0.00000E+00
8.32025E-01	2.20514E+00	0.00000E+00
8.35192E-01	2.20345E+00	0.00000E+00
8.38366E-01	2.20179E+00	0.00000E+00
8.41535E-01	2.20015E+00	0.00000E+00
8.44700E-01	2.19854E+00	0.00000E+00
8.47871E-01	2.19697E+00	0.00000E+00
8.51037E-01	2.19541E+00	0.00000E+00
8.54203E-01	2.19389E+00	0.00000E+00
8.57375E-01	2.19238E+00	0.00000E+00
8.60541E-01	2.19091E+00	0.00000E+00
8.63706E-01	2.18945E+00	0.00000E+00
8.66871E-01	2.18802E+00	0.00000E+00
8.70034E-01	2.18662E+00	0.00000E+00
8.73196E-01	2.18523E+00	0.00000E+00
8.76362E-01	2.18386E+00	0.00000E+00
8.79526E-01	2.18252E+00	0.00000E+00
8.82689E-01	2.18119E+00	0.00000E+00
8.85848E-01	2.17989E+00	0.00000E+00
8.89005E-01	2.17860E+00	0.00000E+00
8.92172E-01	2.17734E+00	0.00000E+00
8.95329E-01	2.17609E+00	0.00000E+00
8.98488E-01	2.17486E+00	0.00000E+00
9.01644E-01	2.17364E+00	0.00000E+00
9.04803E-01	2.17244E+00	0.00000E+00
9.07957E-01	2.17126E+00	0.00000E+00
9.11113E-01	2.17010E+00	0.00000E+00
9.14270E-01	2.16895E+00	0.00000E+00
9.17430E-01	2.16782E+00	0.00000E+00
9.20584E-01	2.16670E+00	0.00000E+00
9.23732E-01	2.16559E+00	0.00000E+00
9.26888E-01	2.16450E+00	0.00000E+00
9.30037E-01	2.16343E+00	0.00000E+00
9.33187E-01	2.16236E+00	0.00000E+00
9.36338E-01	2.16131E+00	0.00000E+00
9.39488E-01	2.16028E+00	0.00000E+00
9.42638E-01	2.15925E+00	0.00000E+00
9.45787E-01	2.15824E+00	0.00000E+00
9.48936E-01	2.15724E+00	0.00000E+00
9.52084E-01	2.15625E+00	0.00000E+00
9.55231E-01	2.15528E+00	0.00000E+00
9.58376E-01	2.15431E+00	0.00000E+00
9.61520E-01	2.15336E+00	0.00000E+00
9.64662E-01	2.15242E+00	0.00000E+00
9.67802E-01	2.15149E+00	0.00000E+00
9.70948E-01	2.15057E+00	0.00000E+00
9.74091E-01	2.14966E+00	0.00000E+00
9.77231E-01	2.14875E+00	0.00000E+00
9.80368E-01	2.14786E+00	0.00000E+00
9.83510E-01	2.14698E+00	0.00000E+00
9.86648E-01	2.14611E+00	0.00000E+00
9.89783E-01	2.14525E+00	0.00000E+00
9.92914E-01	2.14439E+00	0.00000E+00
9.96049E-01	2.14355E+00	0.00000E+00
9.99188E-01	2.14271E+00	0.00000E+00
1.01641E+00	2.13826E+00	0.00000E+00
1.02322E+00	2.13657E+00	0.00000E+00
1.03003E+00	2.13490E+00	0.00000E+00
1.03684E+00	2.13327E+00	0.00000E+00
1.04366E+00	2.13168E+00	0.00000E+00
1.05047E+00	2.13011E+00	0.00000E+00
1.05729E+00	2.12857E+00	0.00000E+00
1.06411E+00	2.12705E+00	0.00000E+00
1.07093E+00	2.12556E+00	0.00000E+00
1.07775E+00	2.12410E+00	0.00000E+00
1.08457E+00	2.12267E+00	0.00000E+00
1.09140E+00	2.12125E+00	0.00000E+00
1.09823E+00	2.11986E+00	0.00000E+00
1.10506E+00	2.11849E+00	0.00000E+00
1.11189E+00	2.11715E+00	0.00000E+00
1.11872E+00	2.11582E+00	0.00000E+00
1.12554E+00	2.11451E+00	0.00000E+00
1.13238E+00	2.11322E+00	0.00000E+00
1.13922E+00	2.11196E+00	0.00000E+00
1.14605E+00	2.11070E+00	0.00000E+00
1.15289E+00	2.10947E+00	0.00000E+00
1.15973E+00	2.10825E+00	0.00000E+00
1.16657E+00	2.10705E+00	0.00000E+00
1.17340E+00	2.10586E+00	0.00000E+00
1.18025E+00	2.10469E+00	0.00000E+00
1.18709E+00	2.10353E+00	0.00000E+00
1.19394E+00	2.10239E+00	0.00000E+00
1.20079E+00	2.10126E+00	0.00000E+00
1.20763E+00	2.10014E+00	0.00000E+00
1.21448E+00	2.09903E+00	0.00000E+00
1.22134E+00	2.09794E+00	0.00000E+00
1.22819E+00	2.09686E+00	0.00000E+00
1.23504E+00	2.09579E+00	0.00000E+00
1.24190E+00	2.09473E+00	0.00000E+00
1.24876E+00	2.09368E+00	0.00000E+00
1.25561E+00	2.09264E+00	0.00000E+00
1.26248E+00	2.09162E+00	0.00000E+00
1.26933E+00	2.09060E+00	0.00000E+00
1.27620E+00	2.08959E+00	0.00000E+00
1.28306E+00	2.08859E+00	0.00000E+00
1.28993E+00	2.08760E+00	0.00000E+00
1.29680E+00	2.08662E+00	0.00000E+00
1.30366E+00	2.08564E+00	0.00000E+00
1.31053E+00	2.08467E+00	0.00000E+00
1.31740E+00	2.08371E+00	0.00000E+00
1.32428E+00	2.08276E+00	0.00000E+00
1.33115E+00	2.08182E+00	0.00000E+00
1.33803E+00	2.08088E+00	0.00000E+00
1.34489E+00	2.07995E+00	0.00000E+00
1.35178E+00	2.07902E+00	0.00000E+00
1.35866E+00	2.07810E+00	0.00000E+00
1.36554E+00	2.07719E+00	0.00000E+00
1.37242E+00	2.07629E+00	0.00000E+00
1.37930E+00	2.07538E+00	0.00000E+00
1.38618E+00	2.07449E+00	0.00000E+00
1.39307E+00	2.07360E+00	0.00000E+00
1.39995E+00	2.07272E+00	0.00000E+00
1.40685E+00	2.07183E+00	0.00000E+00
1.41375E+00	2.07096E+00	0.00000E+00
1.42063E+00	2.07009E+00	0.00000E+00
1.42752E+00	2.06922E+00	0.00000E+00
1.43442E+00	2.06836E+00	0.00000E+00
1.44131E+00	2.06750E+00	0.00000E+00
1.44821E+00	2.06665E+00	0.00000E+00
1.45511E+00	2.06580E+00	0.00000E+00
1.46201E+00	2.06495E+00	0.00000E+00
1.46890E+00	2.06411E+00	0.00000E+00
1.47581E+00	2.06327E+00	0.00000E+00
1.48271E+00	2.06243E+00	0.00000E+00
1.48962E+00	2.06160E+00	0.00000E+00
1.49653E+00	2.06077E+00	0.00000E+00
1.50344E+00	2.05994E+00	0.00000E+00
1.51034E+00	2.05912E+00	0.00000E+00
1.51726E+00	2.05830E+00	0.00000E+00
1.52418E+00	2.05748E+00	0.00000E+00
1.53108E+00	2.05667E+00	0.00000E+00
1.53800E+00	2.05585E+00	0.00000E+00
1.54492E+00	2.05504E+00	0.00000E+00
1.55184E+00	2.05423E+00	0.00000E+00
1.55877E+00	2.05342E+00	0.00000E+00
1.56567E+00	2.05262E+00	0.00000E+00
1.57261E+00	2.05182E+00	0.00000E+00
1.57952E+00	2.05102E+00	0.00000E+00
1.58645E+00	2.05022E+00	0.00000E+00
1.59338E+00	2.04942E+00	0.00000E+00
1.60031E+00	2.04862E+00	0.00000E+00
1.60724E+00	2.04783E+00	0.00000E+00
1.61417E+00	2.04704E+00	0.00000E+00
1.62109E+00	2.04625E+00	0.00000E+00
1.62803E+00	2.04546E+00	0.00000E+00
1.63496E+00	2.04467E+00	0.00000E+00
1.64189E+00	2.04388E+00	0.00000E+00
1.64884E+00	2.04309E+00	0.00000E+00
1.65577E+00	2.04231E+00	0.00000E+00
1.66272E+00	2.04152E+00	0.00000E+00
1.66966E+00	2.04074E+00	0.00000E+00
1.67659E+00	2.03996E+00	0.00000E+00
1.68354E+00	2.03917E+00	0.00000E+00
