Material: perovskite / 2D HOIP / Song-RP4
Optical constants. B. Song, J. Hou, H. Wang, S. Sidhik, J. Miao, H. Gu, H. Zhang, S. Liu, Z. Fakhraai, J. Even, J.-C. Blancon, A. D. Mohite, D. Jariwala. Determination of dielectric functions and exciton oscillator strength of two-dimensional hybrid perovskites, ACS Materials Lett. 3, 148-159 (2021)(Numerical data kindly provided by Baokun Song)
Comments: Two-dimensional (2D) hybrid organic−inorganic perovskite (HOIP) semiconductor. Ruddlesden–Popper (RP) phase. (BA)2(MA)n-1PbnI3n-1,where BA = CH3(CH2)3NH3, MA = CH3NH3, and n determines the thickness of the lead−iodide perovskite layer.n = 4
Specs: {"n_absolute": true, "wavelength_vacuum": true, "substrate": "glass"}
wavelength (um)	n	k
3.70914E-01	2.08676E+00	1.13891E+00
3.74077E-01	2.12589E+00	1.12437E+00
3.77240E-01	2.16172E+00	1.10617E+00
3.80405E-01	2.19365E+00	1.08510E+00
3.83571E-01	2.22124E+00	1.06206E+00
3.86736E-01	2.24434E+00	1.03805E+00
3.89902E-01	2.26303E+00	1.01409E+00
3.93069E-01	2.27769E+00	9.91120E-01
3.96237E-01	2.28892E+00	9.69950E-01
3.99404E-01	2.29748E+00	9.51170E-01
4.02574E-01	2.30427E+00	9.35130E-01
4.05742E-01	2.31022E+00	9.21880E-01
4.08911E-01	2.31620E+00	9.11240E-01
4.12082E-01	2.32295E+00	9.02740E-01
4.15252E-01	2.33101E+00	8.95760E-01
4.18423E-01	2.34064E+00	8.89560E-01
4.21595E-01	2.35186E+00	8.83380E-01
4.24766E-01	2.36440E+00	8.76550E-01
4.27939E-01	2.37782E+00	8.68600E-01
4.31111E-01	2.39153E+00	8.59260E-01
4.34284E-01	2.40496E+00	8.48510E-01
4.37459E-01	2.41758E+00	8.36540E-01
4.40632E-01	2.42903E+00	8.23730E-01
4.43807E-01	2.43910E+00	8.10500E-01
4.46983E-01	2.44780E+00	7.97340E-01
4.50158E-01	2.45528E+00	7.84660E-01
4.53334E-01	2.46182E+00	7.72780E-01
4.56511E-01	2.46781E+00	7.61890E-01
4.59688E-01	2.47367E+00	7.52020E-01
4.62864E-01	2.47980E+00	7.43070E-01
4.66041E-01	2.48654E+00	7.34780E-01
4.69219E-01	2.49412E+00	7.26780E-01
4.72398E-01	2.50264E+00	7.18630E-01
4.75576E-01	2.51198E+00	7.09850E-01
4.78755E-01	2.52185E+00	7.00040E-01
4.81934E-01	2.53180E+00	6.88930E-01
4.85113E-01	2.54128E+00	6.76460E-01
4.88294E-01	2.54975E+00	6.62830E-01
4.91474E-01	2.55680E+00	6.48420E-01
4.94655E-01	2.56222E+00	6.33790E-01
4.97837E-01	2.56605E+00	6.19510E-01
5.01017E-01	2.56859E+00	6.06090E-01
5.04198E-01	2.57021E+00	5.93760E-01
5.07379E-01	2.57131E+00	5.82730E-01
5.10561E-01	2.57238E+00	5.73030E-01
5.13743E-01	2.57386E+00	5.64540E-01
5.16926E-01	2.57612E+00	5.57000E-01
5.20109E-01	2.57943E+00	5.50050E-01
5.23292E-01	2.58394E+00	5.43280E-01
5.26474E-01	2.58969E+00	5.36260E-01
5.29659E-01	2.59658E+00	5.28560E-01
5.32844E-01	2.60442E+00	5.19790E-01
5.36027E-01	2.61290E+00	5.09600E-01
5.39212E-01	2.62161E+00	4.97760E-01
5.42396E-01	2.63010E+00	4.84110E-01
5.45580E-01	2.63786E+00	4.68640E-01
5.48765E-01	2.64440E+00	4.51500E-01
5.51949E-01	2.64925E+00	4.32920E-01
5.55134E-01	2.65204E+00	4.13310E-01
5.58319E-01	2.65249E+00	3.93120E-01
5.61505E-01	2.65046E+00	3.72880E-01
5.64691E-01	2.64595E+00	3.53150E-01
5.67875E-01	2.63907E+00	3.34440E-01
5.71061E-01	2.63006E+00	3.17250E-01
5.74248E-01	2.61926E+00	3.02010E-01
5.77433E-01	2.60709E+00	2.89070E-01
5.80619E-01	2.59408E+00	2.78680E-01
5.83807E-01	2.58077E+00	2.71000E-01
5.86994E-01	2.56781E+00	2.66130E-01
5.90179E-01	2.55600E+00	2.63950E-01
5.93365E-01	2.54624E+00	2.64040E-01
5.96551E-01	2.53939E+00	2.65460E-01
5.99737E-01	2.53589E+00	2.66560E-01
6.02925E-01	2.53501E+00	2.65240E-01
6.06111E-01	2.53440E+00	2.59910E-01
6.09298E-01	2.53064E+00	2.50940E-01
6.12485E-01	2.52113E+00	2.41150E-01
6.15673E-01	2.50553E+00	2.34410E-01
6.18860E-01	2.48551E+00	2.33900E-01
6.22045E-01	2.46347E+00	2.41660E-01
6.25232E-01	2.44196E+00	2.59190E-01
6.28420E-01	2.42399E+00	2.88130E-01
6.31606E-01	2.41431E+00	3.30520E-01
6.34794E-01	2.42160E+00	3.87560E-01
6.37979E-01	2.46054E+00	4.54620E-01
6.41166E-01	2.54759E+00	5.10600E-01
6.44355E-01	2.67689E+00	5.11780E-01
6.47539E-01	2.79253E+00	4.30450E-01
6.50726E-01	2.83809E+00	3.07610E-01
6.53915E-01	2.82211E+00	2.02120E-01
6.57100E-01	2.78053E+00	1.31610E-01
6.60288E-01	2.73537E+00	8.86900E-02
6.63471E-01	2.69451E+00	6.31600E-02
6.66657E-01	2.65957E+00	4.79600E-02
6.69844E-01	2.63008E+00	3.88600E-02
6.73030E-01	2.60516E+00	3.34200E-02
6.76216E-01	2.58393E+00	3.02400E-02
6.79403E-01	2.56570E+00	2.84600E-02
6.82590E-01	2.54992E+00	2.75800E-02
6.85772E-01	2.53628E+00	2.72300E-02
6.88958E-01	2.52433E+00	2.69300E-02
6.92143E-01	2.51360E+00	2.66300E-02
6.95329E-01	2.50382E+00	2.63300E-02
6.98514E-01	2.49484E+00	2.60300E-02
7.01697E-01	2.48652E+00	2.57300E-02
7.04884E-01	2.47878E+00	2.54300E-02
7.08068E-01	2.47152E+00	2.51400E-02
7.11253E-01	2.46469E+00	2.48500E-02
7.14433E-01	2.45825E+00	2.45700E-02
7.17617E-01	2.45214E+00	2.43000E-02
7.20801E-01	2.44634E+00	2.40200E-02
7.23987E-01	2.44082E+00	2.37500E-02
7.27167E-01	2.43554E+00	2.34900E-02
7.30350E-01	2.43050E+00	2.32300E-02
7.33534E-01	2.42567E+00	2.29800E-02
7.36716E-01	2.42103E+00	2.27300E-02
7.39899E-01	2.41656E+00	2.24800E-02
7.43079E-01	2.41227E+00	2.22400E-02
7.46259E-01	2.40813E+00	2.20100E-02
7.49444E-01	2.40414E+00	2.17800E-02
7.52624E-01	2.40027E+00	2.15500E-02
7.55803E-01	2.39654E+00	2.13300E-02
7.58982E-01	2.39293E+00	2.11100E-02
7.62164E-01	2.38942E+00	2.09000E-02
7.65344E-01	2.38603E+00	2.06900E-02
7.68522E-01	2.38273E+00	2.04800E-02
7.71699E-01	2.37953E+00	2.02800E-02
7.74882E-01	2.37642E+00	2.00800E-02
7.78057E-01	2.37340E+00	1.98900E-02
7.81234E-01	2.37045E+00	1.97000E-02
7.84412E-01	2.36759E+00	1.95100E-02
7.87591E-01	2.36480E+00	1.93300E-02
7.90766E-01	2.36208E+00	1.91500E-02
7.93941E-01	2.35943E+00	1.89700E-02
7.97121E-01	2.35684E+00	1.88000E-02
8.00296E-01	2.35431E+00	1.86300E-02
8.03470E-01	2.35185E+00	1.84600E-02
8.06643E-01	2.34944E+00	1.83000E-02
8.09820E-01	2.34709E+00	1.81400E-02
8.12990E-01	2.34479E+00	1.79800E-02
8.16163E-01	2.34254E+00	1.78200E-02
8.19335E-01	2.34034E+00	1.76700E-02
8.22509E-01	2.33819E+00	1.75200E-02
8.25681E-01	2.33608E+00	1.73700E-02
8.28854E-01	2.33402E+00	1.72300E-02
8.32025E-01	2.33199E+00	1.70900E-02
8.35192E-01	2.33001E+00	1.69500E-02
8.38366E-01	2.32808E+00	1.68100E-02
8.41535E-01	2.32617E+00	1.66700E-02
8.44700E-01	2.32431E+00	1.65400E-02
8.47871E-01	2.32248E+00	1.64100E-02
8.51037E-01	2.32069E+00	1.62800E-02
8.54203E-01	2.31893E+00	1.61500E-02
8.57375E-01	2.31720E+00	1.60300E-02
8.60541E-01	2.31551E+00	1.59100E-02
8.63706E-01	2.31385E+00	1.57900E-02
8.66871E-01	2.31221E+00	1.56700E-02
8.70034E-01	2.31061E+00	1.55500E-02
8.73196E-01	2.30903E+00	1.54300E-02
8.76362E-01	2.30748E+00	1.53200E-02
8.79526E-01	2.30596E+00	1.52100E-02
8.82689E-01	2.30446E+00	1.51000E-02
8.85848E-01	2.30299E+00	1.49900E-02
8.89005E-01	2.30155E+00	1.48800E-02
8.92172E-01	2.30013E+00	1.47800E-02
8.95329E-01	2.29873E+00	1.46800E-02
8.98488E-01	2.29735E+00	1.45700E-02
9.01644E-01	2.29600E+00	1.44700E-02
9.04803E-01	2.29467E+00	1.43700E-02
9.07957E-01	2.29336E+00	1.42800E-02
9.11113E-01	2.29207E+00	1.41800E-02
9.14270E-01	2.29080E+00	1.40900E-02
9.17430E-01	2.28955E+00	1.39900E-02
9.20584E-01	2.28831E+00	1.39000E-02
9.23732E-01	2.28710E+00	1.38100E-02
9.26888E-01	2.28591E+00	1.37200E-02
9.30037E-01	2.28473E+00	1.36300E-02
9.33187E-01	2.28357E+00	1.35500E-02
9.36338E-01	2.28243E+00	1.34600E-02
9.39488E-01	2.28131E+00	1.33700E-02
9.42638E-01	2.28020E+00	1.32900E-02
9.45787E-01	2.27911E+00	1.32100E-02
9.48936E-01	2.27803E+00	1.31300E-02
9.52084E-01	2.27697E+00	1.30500E-02
9.55231E-01	2.27592E+00	1.29700E-02
9.58376E-01	2.27489E+00	1.28900E-02
9.61520E-01	2.27387E+00	1.28100E-02
9.64662E-01	2.27287E+00	1.27400E-02
9.67802E-01	2.27188E+00	1.26600E-02
9.70948E-01	2.27090E+00	1.25900E-02
9.74091E-01	2.26993E+00	1.25100E-02
9.77231E-01	2.26898E+00	1.24400E-02
9.80368E-01	2.26804E+00	1.23700E-02
9.83510E-01	2.26712E+00	1.23000E-02
9.86648E-01	2.26621E+00	1.22300E-02
9.89783E-01	2.26530E+00	1.21600E-02
9.92914E-01	2.26441E+00	1.20900E-02
9.96049E-01	2.26353E+00	1.20200E-02
9.99188E-01	2.26267E+00	1.19600E-02
1.01641E+00	2.25809E+00	1.16100E-02
1.02322E+00	2.25636E+00	1.14700E-02
1.03003E+00	2.25467E+00	1.13400E-02
1.03684E+00	2.25303E+00	1.12200E-02
1.04366E+00	2.25142E+00	1.11000E-02
1.05047E+00	2.24986E+00	1.09700E-02
1.05729E+00	2.24833E+00	1.08600E-02
1.06411E+00	2.24684E+00	1.07400E-02
1.07093E+00	2.24539E+00	1.06300E-02
1.07775E+00	2.24397E+00	1.05200E-02
1.08457E+00	2.24258E+00	1.04100E-02
1.09140E+00	2.24122E+00	1.03100E-02
1.09823E+00	2.23989E+00	1.02000E-02
1.10506E+00	2.23859E+00	1.01000E-02
1.11189E+00	2.23732E+00	1.00000E-02
1.11872E+00	2.23608E+00	9.91000E-03
1.12554E+00	2.23486E+00	9.81000E-03
1.13238E+00	2.23367E+00	9.72000E-03
1.13922E+00	2.23251E+00	9.63000E-03
1.14605E+00	2.23136E+00	9.54000E-03
1.15289E+00	2.23025E+00	9.45000E-03
1.15973E+00	2.22915E+00	9.36000E-03
1.16657E+00	2.22808E+00	9.28000E-03
1.17340E+00	2.22702E+00	9.20000E-03
1.18025E+00	2.22599E+00	9.12000E-03
1.18709E+00	2.22498E+00	9.04000E-03
1.19394E+00	2.22398E+00	8.96000E-03
1.20079E+00	2.22301E+00	8.88000E-03
1.20763E+00	2.22205E+00	8.81000E-03
1.21448E+00	2.22112E+00	8.73000E-03
1.22134E+00	2.22019E+00	8.66000E-03
1.22819E+00	2.21929E+00	8.59000E-03
1.23504E+00	2.21840E+00	8.52000E-03
1.24190E+00	2.21753E+00	8.45000E-03
1.24876E+00	2.21667E+00	8.38000E-03
1.25561E+00	2.21583E+00	8.32000E-03
1.26248E+00	2.21500E+00	8.25000E-03
1.26933E+00	2.21419E+00	8.19000E-03
1.27620E+00	2.21339E+00	8.13000E-03
1.28306E+00	2.21260E+00	8.06000E-03
1.28993E+00	2.21183E+00	8.00000E-03
1.29680E+00	2.21107E+00	7.94000E-03
1.30366E+00	2.21032E+00	7.88000E-03
1.31053E+00	2.20959E+00	7.82000E-03
1.31740E+00	2.20886E+00	7.77000E-03
1.32428E+00	2.20815E+00	7.71000E-03
1.33115E+00	2.20745E+00	7.66000E-03
1.33803E+00	2.20675E+00	7.60000E-03
1.34489E+00	2.20607E+00	7.55000E-03
1.35178E+00	2.20540E+00	7.49000E-03
1.35866E+00	2.20475E+00	7.44000E-03
1.36554E+00	2.20410E+00	7.39000E-03
1.37242E+00	2.20345E+00	7.34000E-03
1.37930E+00	2.20282E+00	7.29000E-03
1.38618E+00	2.20220E+00	7.24000E-03
1.39307E+00	2.20159E+00	7.19000E-03
1.39995E+00	2.20099E+00	7.14000E-03
1.40685E+00	2.20039E+00	7.10000E-03
1.41375E+00	2.19980E+00	7.05000E-03
1.42063E+00	2.19922E+00	7.00000E-03
1.42752E+00	2.19865E+00	6.96000E-03
1.43442E+00	2.19809E+00	6.91000E-03
1.44131E+00	2.19753E+00	6.87000E-03
1.44821E+00	2.19698E+00	6.83000E-03
1.45511E+00	2.19644E+00	6.78000E-03
1.46201E+00	2.19591E+00	6.74000E-03
1.46890E+00	2.19538E+00	6.70000E-03
1.47581E+00	2.19486E+00	6.66000E-03
1.48271E+00	2.19434E+00	6.62000E-03
1.48962E+00	2.19384E+00	6.58000E-03
1.49653E+00	2.19333E+00	6.54000E-03
1.50344E+00	2.19284E+00	6.50000E-03
1.51034E+00	2.19235E+00	6.46000E-03
1.51726E+00	2.19187E+00	6.42000E-03
1.52418E+00	2.19139E+00	6.39000E-03
1.53108E+00	2.19092E+00	6.35000E-03
1.53800E+00	2.19045E+00	6.31000E-03
1.54492E+00	2.18999E+00	6.28000E-03
1.55184E+00	2.18953E+00	6.24000E-03
1.55877E+00	2.18908E+00	6.20000E-03
1.56567E+00	2.18864E+00	6.17000E-03
1.57261E+00	2.18820E+00	6.13000E-03
1.57952E+00	2.18776E+00	6.10000E-03
1.58645E+00	2.18733E+00	6.07000E-03
1.59338E+00	2.18690E+00	6.03000E-03
1.60031E+00	2.18648E+00	6.00000E-03
1.60724E+00	2.18607E+00	5.97000E-03
1.61417E+00	2.18565E+00	5.94000E-03
1.62109E+00	2.18525E+00	5.90000E-03
1.62803E+00	2.18484E+00	5.87000E-03
1.63496E+00	2.18444E+00	5.84000E-03
1.64189E+00	2.18404E+00	5.81000E-03
1.64884E+00	2.18365E+00	5.78000E-03
1.65577E+00	2.18326E+00	5.75000E-03
1.66272E+00	2.18288E+00	5.72000E-03
1.66966E+00	2.18250E+00	5.69000E-03
1.67659E+00	2.18212E+00	5.66000E-03
1.68354E+00	2.18175E+00	5.63000E-03
