Material: other / resists / Micro resist ma-N 1407
Optical constants. S. Joseph, S. Sarkar, J. Joseph, Grating-coupled surface plasmon-polariton sensing at a flat metalâ€“analyte interface in a hybrid-configuration, ACS Appl. Mater. Interfaces, 12, 46519-46529 (2020)(Numerical data kindly provided by Prof. Joby Joseph)
Comments: Negative tone resist (ma-N 1407) thin film (thickness 1000 nm) on glass substrate.
Specs: {"n_absolute": true, "wavelength_vacuum": true, "film_thickness": "1000 nm", "substrate": "glass"}
wavelength (um)	n	k
0.3014	1.77692	0.19721
0.3046	1.76497	0.17579
0.3078	1.75530	0.16591
0.3110	1.74758	0.16613
0.3142	1.74153	0.17512
0.3173	1.73686	0.19169
0.3205	1.73335	0.21476
0.3237	1.73075	0.24333
0.3269	1.72887	0.27646
0.3300	1.72763	0.31245
0.3332	1.72706	0.34893
0.3364	1.72719	0.38376
0.3396	1.72805	0.41506
0.3428	1.72966	0.44114
0.3459	1.73202	0.46051
0.3491	1.73516	0.47185
0.3523	1.73907	0.47402
0.3555	1.74373	0.46607
0.3586	1.74900	0.44869
0.3618	1.75456	0.42389
0.3650	1.76014	0.39354
0.3682	1.76551	0.35933
0.3714	1.77045	0.32280
0.3745	1.77478	0.28534
0.3777	1.77832	0.24823
0.3809	1.78092	0.21260
0.3841	1.78246	0.17947
0.3872	1.78282	0.14977
0.3904	1.78191	0.12421
0.3936	1.77987	0.10265
0.3968	1.77692	0.08461
0.4000	1.77322	0.06965
0.4031	1.76897	0.05735
0.4063	1.76432	0.04734
0.4095	1.75941	0.03927
0.4127	1.75439	0.03283
0.4158	1.74938	0.02770
0.4190	1.74449	0.02363
0.4222	1.73983	0.02036
0.4254	1.73550	0.01766
0.4285	1.73159	0.01532
0.4317	1.72816	0.01316
0.4349	1.72520	0.01112
0.4381	1.72266	0.00922
0.4413	1.72047	0.00746
0.4444	1.71859	0.00582
0.4476	1.71697	0.00433
0.4508	1.71557	0.00296
0.4540	1.71435	0.00174
0.4571	1.71328	0.00065
0.4603	1.71231	-0.00031
0.4635	1.71141	-0.00112
0.4667	1.71056	-0.00181
0.4698	1.70973	-0.00235
0.4730	1.70889	-0.00277
0.4762	1.70802	-0.00305
0.4794	1.70710	-0.00320
0.4825	1.70610	-0.00322
0.4857	1.70504	-0.00312
0.4889	1.70392	-0.00293
0.4921	1.70275	-0.00266
0.4952	1.70154	-0.00232
0.4984	1.70031	-0.00193
0.5016	1.69906	-0.00152
0.5048	1.69781	-0.00108
0.5079	1.69656	-0.00063
0.5111	1.69531	-0.00019
0.5143	1.69407	0.00024
0.5174	1.69286	0.00064
0.5206	1.69167	0.00101
0.5238	1.69052	0.00134
0.5270	1.68940	0.00162
0.5301	1.68832	0.00184
0.5333	1.68729	0.00200
0.5365	1.68632	0.00209
0.5397	1.68539	0.00210
0.5428	1.68452	0.00204
0.5460	1.68372	0.00189
0.5492	1.68297	0.00165
0.5523	1.68228	0.00134
0.5555	1.68164	0.00096
0.5587	1.68105	0.00053
0.5619	1.68051	0.00004
0.5650	1.68001	-0.00049
0.5682	1.67954	-0.00106
0.5714	1.67910	-0.00165
0.5745	1.67870	-0.00227
0.5777	1.67832	-0.00290
0.5809	1.67796	-0.00355
0.5840	1.67763	-0.00420
0.5872	1.67731	-0.00485
0.5904	1.67701	-0.00550
0.5936	1.67672	-0.00614
0.5967	1.67644	-0.00677
0.5999	1.67618	-0.00739
0.6031	1.67591	-0.00798
0.6062	1.67566	-0.00855
0.6094	1.67541	-0.00909
0.6126	1.67516	-0.00961
0.6157	1.67491	-0.01010
0.6189	1.67466	-0.01055
0.6221	1.67440	-0.01096
0.6252	1.67414	-0.01134
0.6284	1.67388	-0.01168
0.6316	1.67362	-0.01198
0.6347	1.67334	-0.01223
0.6379	1.67306	-0.01244
0.6410	1.67277	-0.01262
0.6442	1.67248	-0.01276
0.6474	1.67218	-0.01287
0.6505	1.67188	-0.01294
0.6537	1.67158	-0.01299
0.6569	1.67127	-0.01301
0.6600	1.67096	-0.01301
0.6632	1.67065	-0.01298
0.6664	1.67034	-0.01293
0.6695	1.67002	-0.01286
0.6727	1.66970	-0.01277
0.6758	1.66939	-0.01267
0.6790	1.66907	-0.01255
0.6822	1.66875	-0.01241
0.6853	1.66843	-0.01226
0.6885	1.66811	-0.01210
0.6916	1.66779	-0.01193
0.6948	1.66748	-0.01175
0.6980	1.66716	-0.01157
0.7011	1.66685	-0.01137
0.7043	1.66654	-0.01117
0.7074	1.66622	-0.01096
0.7106	1.66591	-0.01075
0.7138	1.66561	-0.01053
0.7169	1.66530	-0.01031
0.7201	1.66500	-0.01009
0.7232	1.66470	-0.00986
0.7264	1.66440	-0.00964
0.7295	1.66410	-0.00941
0.7327	1.66381	-0.00919
0.7359	1.66352	-0.00897
0.7390	1.66323	-0.00874
0.7422	1.66295	-0.00852
0.7453	1.66267	-0.00830
0.7485	1.66240	-0.00809
0.7516	1.66212	-0.00787
0.7548	1.66185	-0.00766
0.7579	1.66159	-0.00746
0.7611	1.66132	-0.00726
0.7642	1.66106	-0.00706
0.7674	1.66081	-0.00687
0.7705	1.66055	-0.00669
0.7737	1.66031	-0.00651
0.7768	1.66006	-0.00634
0.7800	1.65982	-0.00618
0.7831	1.65958	-0.00602
0.7863	1.65935	-0.00587
0.7894	1.65912	-0.00573
0.7926	1.65889	-0.00559
0.7957	1.65867	-0.00547
0.7989	1.65845	-0.00535
0.8020	1.65823	-0.00524
0.8052	1.65802	-0.00514
0.8083	1.65781	-0.00504
0.8115	1.65761	-0.00496
0.8146	1.65741	-0.00489
0.8178	1.65721	-0.00482
0.8209	1.65702	-0.00477
0.8241	1.65683	-0.00472
0.8272	1.65664	-0.00468
0.8303	1.65646	-0.00466
0.8335	1.65628	-0.00464
0.8366	1.65610	-0.00463
0.8398	1.65593	-0.00463
0.8429	1.65576	-0.00464
0.8461	1.65560	-0.00467
0.8492	1.65544	-0.00470
0.8523	1.65528	-0.00474
0.8555	1.65513	-0.00479
0.8586	1.65497	-0.00486
0.8618	1.65483	-0.00493
0.8649	1.65468	-0.00501
0.8680	1.65454	-0.00510
0.8712	1.65441	-0.00521
0.8743	1.65427	-0.00532
0.8774	1.65414	-0.00544
0.8806	1.65402	-0.00557
0.8837	1.65389	-0.00572
0.8869	1.65377	-0.00587
0.8900	1.65365	-0.00603
0.8931	1.65354	-0.00621
0.8963	1.65343	-0.00639
0.8994	1.65332	-0.00658
0.9025	1.65322	-0.00678
0.9057	1.65312	-0.00700
0.9088	1.65302	-0.00722
0.9119	1.65292	-0.00745
0.9151	1.65283	-0.00769
0.9182	1.65274	-0.00794
0.9213	1.65265	-0.00820
0.9244	1.65257	-0.00847
0.9276	1.65249	-0.00875
0.9307	1.65241	-0.00904
0.9338	1.65233	-0.00933
0.9370	1.65226	-0.00963
0.9401	1.65219	-0.00993
0.9432	1.65212	-0.01024
0.9463	1.65205	-0.01055
0.9495	1.65199	-0.01087
0.9526	1.65193	-0.01119
0.9557	1.65187	-0.01152
0.9588	1.65181	-0.01185
0.9620	1.65175	-0.01218
0.9651	1.65169	-0.01251
0.9682	1.65164	-0.01284
0.9713	1.65158	-0.01317
0.9744	1.65153	-0.01351
0.9776	1.65148	-0.01384
0.9807	1.65144	-0.01417
0.9838	1.65139	-0.01451
0.9869	1.65134	-0.01484
0.9900	1.65129	-0.01517
0.9932	1.65125	-0.01550
0.9963	1.65121	-0.01583
0.9994	1.65116	-0.01615
1.0137	1.65098	-0.01762
1.0205	1.65089	-0.01828
1.0272	1.65081	-0.01893
1.0340	1.65073	-0.01955
1.0407	1.65065	-0.02016
1.0475	1.65058	-0.02074
1.0542	1.65050	-0.02129
1.0610	1.65043	-0.02182
1.0677	1.65035	-0.02232
1.0745	1.65028	-0.02279
1.0812	1.65020	-0.02324
1.0880	1.65013	-0.02365
1.0947	1.65005	-0.02403
1.1015	1.64997	-0.02437
1.1083	1.64989	-0.02469
1.1150	1.64982	-0.02497
1.1218	1.64973	-0.02522
1.1286	1.64965	-0.02543
1.1354	1.64957	-0.02561
1.1421	1.64948	-0.02575
1.1489	1.64939	-0.02586
1.1557	1.64931	-0.02594
1.1625	1.64921	-0.02597
1.1693	1.64912	-0.02598
1.1761	1.64902	-0.02594
1.1828	1.64892	-0.02588
1.1896	1.64882	-0.02577
1.1964	1.64872	-0.02564
1.2032	1.64862	-0.02547
1.2100	1.64851	-0.02526
1.2168	1.64840	-0.02503
1.2236	1.64829	-0.02477
1.2304	1.64818	-0.02449
1.2372	1.64806	-0.02417
1.2441	1.64795	-0.02384
1.2509	1.64783	-0.02348
1.2577	1.64771	-0.02310
1.2645	1.64760	-0.02270
1.2713	1.64747	-0.02229
1.2781	1.64736	-0.02185
1.2850	1.64723	-0.02140
1.2918	1.64711	-0.02093
1.2986	1.64699	-0.02045
1.3055	1.64686	-0.01996
1.3123	1.64674	-0.01945
1.3191	1.64662	-0.01893
1.3260	1.64649	-0.01840
1.3328	1.64637	-0.01786
1.3396	1.64624	-0.01731
1.3465	1.64612	-0.01675
1.3533	1.64599	-0.01619
1.3602	1.64587	-0.01561
1.3670	1.64574	-0.01503
1.3739	1.64562	-0.01444
1.3807	1.64549	-0.01385
1.3876	1.64537	-0.01326
1.3945	1.64524	-0.01265
1.4013	1.64512	-0.01205
1.4082	1.64500	-0.01144
1.4150	1.64487	-0.01083
1.4219	1.64475	-0.01021
1.4288	1.64463	-0.00959
1.4357	1.64450	-0.00897
1.4425	1.64438	-0.00835
1.4494	1.64426	-0.00773
1.4563	1.64414	-0.00711
1.4632	1.64402	-0.00648
1.4700	1.64390	-0.00586
1.4769	1.64378	-0.00524
1.4838	1.64366	-0.00461
1.4907	1.64354	-0.00399
1.4976	1.64342	-0.00337
1.5045	1.64331	-0.00275
1.5114	1.64319	-0.00213
1.5183	1.64308	-0.00151
1.5252	1.64296	-0.00090
1.5321	1.64285	-0.00028
1.5390	1.64273	0.00033
1.5459	1.64262	0.00094
1.5528	1.64251	0.00155
1.5597	1.64239	0.00215
1.5666	1.64228	0.00276
1.5736	1.64217	0.00335
1.5805	1.64206	0.00395
1.5874	1.64195	0.00454
1.5943	1.64185	0.00513
1.6013	1.64174	0.00572
1.6082	1.64163	0.00630
1.6151	1.64153	0.00688
1.6220	1.64142	0.00746
1.6290	1.64132	0.00803
1.6359	1.64121	0.00860
1.6429	1.64111	0.00916
1.6498	1.64101	0.00972
1.6567	1.64091	0.01028
1.6637	1.64081	0.01083
1.6706	1.64071	0.01138
1.6776	1.64061	0.01192
1.6845	1.64051	0.01246
