Material: semiconductor alloys / AlAs-GaAs / Papatryfonos-34.2
Optical constants. K. Papatryfonos, T. Angelova, A. Brimont, B. Reid, S. Guldin, P. R. Smith, M. Tang, K. Li, A. J. Seeds, H. Liu, D. R. Selviah. Refractive indices of MBE-grown AlxGa1-xAs ternary alloys in the transparent wavelength region, AIP Adv. 11, 025327 (2021) (Numerical data kindly provided by Konstantinos Papatryfonos)
Comments: AlxGa1-xAs; x = 0.342
Specs: {"n_absolute": true, "wavelength_vacuum": true}
wavelength (um)	n	k
0.26049	3.47237E+00	3.75078E+00
0.26159	3.56415E+00	3.69130E+00
0.26270	3.65239E+00	3.62391E+00
0.26381	3.73579E+00	3.54937E+00
0.26494	3.80800E+00	3.46505E+00
0.26608	3.87147E+00	3.37589E+00
0.26723	3.92599E+00	3.28410E+00
0.26838	3.97093E+00	3.19101E+00
0.26955	4.00528E+00	3.09706E+00
0.27073	4.02954E+00	3.00558E+00
0.27191	4.04538E+00	2.91654E+00
0.27311	4.05426E+00	2.83041E+00
0.27432	4.05738E+00	2.74749E+00
0.27554	4.05527E+00	2.66801E+00
0.27677	4.04658E+00	2.59572E+00
0.27801	4.03399E+00	2.52714E+00
0.27926	4.01815E+00	2.46288E+00
0.28053	3.99956E+00	2.40337E+00
0.28180	3.97851E+00	2.34887E+00
0.28309	3.95583E+00	2.30023E+00
0.28439	3.93252E+00	2.25591E+00
0.28570	3.90881E+00	2.21547E+00
0.28702	3.88490E+00	2.17855E+00
0.28835	3.86107E+00	2.14505E+00
0.28970	3.83780E+00	2.11558E+00
0.29106	3.81541E+00	2.08872E+00
0.29244	3.79388E+00	2.06453E+00
0.29382	3.77324E+00	2.04308E+00
0.29522	3.75358E+00	2.02448E+00
0.29663	3.73555E+00	2.00792E+00
0.29806	3.71818E+00	1.99298E+00
0.29950	3.70176E+00	1.97962E+00
0.30095	3.68648E+00	1.96775E+00
0.30242	3.67231E+00	1.95740E+00
0.30390	3.65889E+00	1.94856E+00
0.30540	3.64663E+00	1.94083E+00
0.30691	3.63522E+00	1.93412E+00
0.30844	3.62455E+00	1.92838E+00
0.30998	3.61502E+00	1.92375E+00
0.31154	3.60683E+00	1.91993E+00
0.31311	3.59930E+00	1.91742E+00
0.31470	3.59259E+00	1.91572E+00
0.31631	3.58691E+00	1.91457E+00
0.31793	3.58267E+00	1.91421E+00
0.31957	3.57868E+00	1.91488E+00
0.32122	3.57582E+00	1.91600E+00
0.32290	3.57398E+00	1.91779E+00
0.32459	3.57301E+00	1.92045E+00
0.32630	3.57285E+00	1.92420E+00
0.32802	3.57450E+00	1.92846E+00
0.32977	3.57706E+00	1.93331E+00
0.33153	3.58068E+00	1.93880E+00
0.33331	3.58543E+00	1.94498E+00
0.33512	3.59115E+00	1.95189E+00
0.33694	3.59853E+00	1.95951E+00
0.33878	3.60694E+00	1.96774E+00
0.34064	3.61671E+00	1.97675E+00
0.34252	3.62808E+00	1.98660E+00
0.34442	3.64116E+00	1.99714E+00
0.34635	3.65647E+00	2.00898E+00
0.34829	3.67418E+00	2.02204E+00
0.35026	3.69439E+00	2.03607E+00
0.35225	3.71733E+00	2.05104E+00
0.35426	3.74394E+00	2.06742E+00
0.35630	3.77572E+00	2.08423E+00
0.35836	3.81278E+00	2.10153E+00
0.36044	3.85695E+00	2.11769E+00
0.36255	3.90921E+00	2.13083E+00
0.36468	3.96975E+00	2.13832E+00
0.36684	4.03824E+00	2.13302E+00
0.36903	4.10755E+00	2.11519E+00
0.37124	4.17355E+00	2.08653E+00
0.37347	4.23270E+00	2.04994E+00
0.37574	4.28087E+00	2.01003E+00
0.37803	4.32204E+00	1.97214E+00
0.38035	4.36083E+00	1.93834E+00
0.38269	4.40087E+00	1.90913E+00
0.38507	4.44609E+00	1.88395E+00
0.38748	4.50188E+00	1.86050E+00
0.38991	4.57724E+00	1.82505E+00
0.39238	4.66081E+00	1.76803E+00
0.39488	4.74189E+00	1.68717E+00
0.39741	4.80932E+00	1.58263E+00
0.39998	4.84739E+00	1.45835E+00
0.40257	4.85572E+00	1.33567E+00
0.40520	4.84529E+00	1.22311E+00
0.40787	4.82073E+00	1.12189E+00
0.41057	4.78695E+00	1.03201E+00
0.41331	4.74860E+00	9.53970E-01
0.41608	4.70871E+00	8.89300E-01
0.41889	4.66851E+00	8.31000E-01
0.42174	4.62858E+00	7.78340E-01
0.42463	4.58937E+00	7.31120E-01
0.42756	4.55115E+00	6.89870E-01
0.43053	4.51402E+00	6.52100E-01
0.43354	4.47795E+00	6.19330E-01
0.43659	4.44320E+00	5.89840E-01
0.43969	4.40995E+00	5.61760E-01
0.44283	4.37811E+00	5.35360E-01
0.44602	4.34747E+00	5.11370E-01
0.44925	4.31767E+00	4.88550E-01
0.45253	4.28893E+00	4.67850E-01
0.45586	4.26133E+00	4.50020E-01
0.45923	4.23486E+00	4.34390E-01
0.46266	4.20857E+00	4.20830E-01
0.46614	4.18400E+00	4.04170E-01
0.46967	4.16060E+00	3.87000E-01
0.47325	4.13765E+00	3.72010E-01
0.47689	4.11553E+00	3.58300E-01
0.48059	4.09453E+00	3.44520E-01
0.48435	4.07407E+00	3.31440E-01
0.48816	4.05403E+00	3.19380E-01
0.49203	4.03444E+00	3.08510E-01
0.49597	4.01560E+00	2.99230E-01
0.49997	3.99757E+00	2.90470E-01
0.50403	3.98019E+00	2.80000E-01
0.50817	3.96321E+00	2.69380E-01
0.51237	3.94651E+00	2.60250E-01
0.51664	3.93092E+00	2.51430E-01
0.52098	3.91600E+00	2.43840E-01
0.52539	3.90114E+00	2.37870E-01
0.52988	3.88657E+00	2.32660E-01
0.53445	3.87264E+00	2.27280E-01
0.53910	3.85962E+00	2.22040E-01
0.54383	3.84692E+00	2.17230E-01
0.54864	3.83523E+00	2.13200E-01
0.55354	3.82475E+00	2.08890E-01
0.55853	3.81522E+00	2.03100E-01
0.56360	3.80511E+00	1.94970E-01
0.56877	3.79299E+00	1.86620E-01
0.57404	3.77978E+00	1.78960E-01
0.57940	3.76584E+00	1.72330E-01
0.58487	3.75153E+00	1.66920E-01
0.59044	3.73770E+00	1.62670E-01
0.59612	3.72534E+00	1.58630E-01
0.60191	3.71321E+00	1.54340E-01
0.60781	3.70146E+00	1.49790E-01
0.61382	3.69060E+00	1.45080E-01
0.61996	3.68113E+00	1.39980E-01
0.62623	3.67232E+00	1.33380E-01
0.63262	3.66321E+00	1.25350E-01
0.63914	3.65479E+00	1.17810E-01
0.64579	3.64897E+00	1.12120E-01
0.65259	3.65075E+00	1.02860E-01
0.65954	3.65072E+00	7.67700E-02
0.66663	3.63968E+00	4.96500E-02
0.67387	3.61935E+00	2.64200E-02
0.68128	3.59661E+00	1.04000E-02
0.68885	3.57448E+00	6.48000E-03
0.69659	3.55571E+00	3.49000E-03
0.70450	3.53892E+00	1.76000E-03
0.71260	3.52405E+00	9.01000E-04
0.72089	3.51093E+00	3.82000E-04
0.72937	3.49875E+00	5.73000E-04
0.73805	3.48767E+00	3.85000E-04
0.74694	3.47656E+00	1.49000E-04
0.75605	3.46595E+00	0.00000E+00
0.76539	3.45656E+00	0.00000E+00
0.77495	3.44694E+00	0.00000E+00
0.78476	3.43539E+00	0.00000E+00
0.79482	3.42499E+00	0.00000E+00
0.80515	3.41608E+00	0.00000E+00
0.81574	3.40840E+00	0.00000E+00
0.82662	3.40382E+00	0.00000E+00
0.83779	3.39625E+00	0.00000E+00
0.84926	3.38822E+00	0.00000E+00
0.86106	3.38028E+00	0.00000E+00
0.87319	3.37261E+00	0.00000E+00
0.88566	3.36532E+00	0.00000E+00
0.89850	3.35819E+00	0.00000E+00
0.91171	3.35128E+00	0.00000E+00
0.92532	3.34457E+00	0.00000E+00
0.93934	3.33800E+00	0.00000E+00
0.95379	3.33170E+00	0.00000E+00
0.96869	3.32556E+00	0.00000E+00
0.98407	3.31955E+00	0.00000E+00
0.99994	3.31372E+00	0.00000E+00
1.01633	3.30809E+00	0.00000E+00
1.03327	3.30260E+00	0.00000E+00
1.05078	3.29721E+00	0.00000E+00
1.06890	3.29197E+00	0.00000E+00
1.08765	3.28690E+00	0.00000E+00
1.10708	3.28198E+00	0.00000E+00
1.12721	3.27714E+00	0.00000E+00
1.14808	3.27248E+00	0.00000E+00
1.16974	3.26790E+00	0.00000E+00
1.19224	3.26343E+00	0.00000E+00
1.21561	3.25908E+00	0.00000E+00
1.23993	3.25488E+00	0.00000E+00
1.26523	3.25077E+00	0.00000E+00
1.29159	3.24673E+00	0.00000E+00
1.31907	3.24028E+00	0.00000E+00
1.34775	3.23900E+00	0.00000E+00
1.37770	3.23518E+00	0.00000E+00
1.40901	3.23158E+00	0.00000E+00
1.44177	3.22802E+00	0.00000E+00
1.47610	3.22451E+00	0.00000E+00
1.51210	3.22111E+00	0.00000E+00
1.54991	3.21780E+00	0.00000E+00
1.58965	3.21484E+00	0.00000E+00
1.63148	3.21169E+00	0.00000E+00
1.67558	3.20866E+00	0.00000E+00
1.72212	3.20558E+00	0.00000E+00
1.77132	3.20264E+00	0.00000E+00
1.82342	3.19971E+00	0.00000E+00
1.87868	3.19686E+00	0.00000E+00
