Material: semiconductor alloys / AlAs-GaAs / Papatryfonos-21.9
Optical constants. K. Papatryfonos, T. Angelova, A. Brimont, B. Reid, S. Guldin, P. R. Smith, M. Tang, K. Li, A. J. Seeds, H. Liu, D. R. Selviah. Refractive indices of MBE-grown AlxGa1-xAs ternary alloys in the transparent wavelength region, AIP Adv. 11, 025327 (2021) (Numerical data kindly provided by Konstantinos Papatryfonos)
Comments: AlxGa1-xAs; x = 0.219
Specs: {"n_absolute": true, "wavelength_vacuum": true}
wavelength (um)	n	k
0.26049	3.40984E+00	3.75916E+00
0.26159	3.49239E+00	3.69956E+00
0.26270	3.56937E+00	3.63592E+00
0.26381	3.64125E+00	3.56879E+00
0.26494	3.70563E+00	3.50007E+00
0.26608	3.76631E+00	3.42872E+00
0.26723	3.82429E+00	3.35410E+00
0.26838	3.87787E+00	3.27574E+00
0.26955	3.92368E+00	3.19312E+00
0.27073	3.96238E+00	3.10748E+00
0.27191	3.99087E+00	3.02132E+00
0.27311	4.01156E+00	2.93575E+00
0.27432	4.02562E+00	2.85197E+00
0.27554	4.03396E+00	2.77073E+00
0.27677	4.03366E+00	2.69338E+00
0.27801	4.02874E+00	2.62002E+00
0.27926	4.01940E+00	2.55084E+00
0.28053	4.00607E+00	2.48619E+00
0.28180	3.98956E+00	2.42565E+00
0.28309	3.97029E+00	2.36954E+00
0.28439	3.94930E+00	2.31862E+00
0.28570	3.92694E+00	2.27233E+00
0.28702	3.90356E+00	2.22991E+00
0.28835	3.87955E+00	2.19120E+00
0.28970	3.85538E+00	2.15650E+00
0.29106	3.83178E+00	2.12542E+00
0.29244	3.80870E+00	2.09804E+00
0.29382	3.78665E+00	2.07315E+00
0.29522	3.76563E+00	2.05051E+00
0.29663	3.74525E+00	2.03053E+00
0.29806	3.72657E+00	2.01318E+00
0.29950	3.70825E+00	1.99764E+00
0.30095	3.69095E+00	1.98388E+00
0.30242	3.67478E+00	1.97179E+00
0.30390	3.65962E+00	1.96121E+00
0.30540	3.64531E+00	1.95190E+00
0.30691	3.63225E+00	1.94385E+00
0.30844	3.62009E+00	1.93694E+00
0.30998	3.60856E+00	1.93110E+00
0.31154	3.59787E+00	1.92637E+00
0.31311	3.58891E+00	1.92254E+00
0.31470	3.58070E+00	1.91980E+00
0.31631	3.57339E+00	1.91778E+00
0.31793	3.56712E+00	1.91650E+00
0.31957	3.56190E+00	1.91610E+00
0.32122	3.55719E+00	1.91652E+00
0.32290	3.55361E+00	1.91772E+00
0.32459	3.55107E+00	1.91963E+00
0.32630	3.54953E+00	1.92194E+00
0.32802	3.54884E+00	1.92474E+00
0.32977	3.54893E+00	1.92884E+00
0.33153	3.55059E+00	1.93325E+00
0.33331	3.55307E+00	1.93840E+00
0.33512	3.55646E+00	1.94417E+00
0.33694	3.56086E+00	1.95053E+00
0.33878	3.56653E+00	1.95756E+00
0.34064	3.57321E+00	1.96531E+00
0.34252	3.58145E+00	1.97361E+00
0.34442	3.59087E+00	1.98265E+00
0.34635	3.60173E+00	1.99243E+00
0.34829	3.61444E+00	2.00290E+00
0.35026	3.62867E+00	2.01457E+00
0.35225	3.64532E+00	2.02756E+00
0.35426	3.66382E+00	2.04126E+00
0.35630	3.68451E+00	2.05575E+00
0.35836	3.70823E+00	2.07140E+00
0.36044	3.73615E+00	2.08808E+00
0.36255	3.76860E+00	2.10633E+00
0.36468	3.80704E+00	2.12527E+00
0.36684	3.85305E+00	2.14391E+00
0.36903	3.90824E+00	2.15992E+00
0.37124	3.97336E+00	2.17031E+00
0.37347	4.04877E+00	2.16539E+00
0.37574	4.12459E+00	2.14605E+00
0.37803	4.19489E+00	2.11283E+00
0.38035	4.25534E+00	2.07018E+00
0.38269	4.30473E+00	2.02389E+00
0.38507	4.34398E+00	1.98046E+00
0.38748	4.37873E+00	1.94294E+00
0.38991	4.41390E+00	1.91283E+00
0.39238	4.45436E+00	1.88926E+00
0.39488	4.50543E+00	1.86982E+00
0.39741	4.57946E+00	1.84674E+00
0.39998	4.67147E+00	1.80055E+00
0.40257	4.76442E+00	1.71997E+00
0.40520	4.84231E+00	1.60741E+00
0.40787	4.89050E+00	1.47166E+00
0.41057	4.90118E+00	1.33460E+00
0.41331	4.88259E+00	1.21627E+00
0.41608	4.85166E+00	1.11261E+00
0.41889	4.81370E+00	1.02179E+00
0.42174	4.77189E+00	9.42430E-01
0.42463	4.72855E+00	8.75130E-01
0.42756	4.68516E+00	8.16320E-01
0.43053	4.64230E+00	7.64590E-01
0.43354	4.60060E+00	7.19080E-01
0.43659	4.56054E+00	6.79160E-01
0.43969	4.52209E+00	6.42520E-01
0.44283	4.48523E+00	6.09520E-01
0.44602	4.44958E+00	5.80920E-01
0.44925	4.41538E+00	5.53370E-01
0.45253	4.38253E+00	5.26850E-01
0.45586	4.35098E+00	5.03390E-01
0.45923	4.32034E+00	4.83220E-01
0.46266	4.29133E+00	4.63810E-01
0.46614	4.26322E+00	4.45820E-01
0.46967	4.23629E+00	4.28620E-01
0.47325	4.21085E+00	4.11850E-01
0.47689	4.18566E+00	3.96100E-01
0.48059	4.16190E+00	3.81820E-01
0.48435	4.13876E+00	3.68340E-01
0.48816	4.11631E+00	3.55650E-01
0.49203	4.09476E+00	3.43230E-01
0.49597	4.07451E+00	3.29660E-01
0.49997	4.05484E+00	3.18110E-01
0.50403	4.03571E+00	3.06490E-01
0.50817	4.01676E+00	2.96690E-01
0.51237	3.99828E+00	2.88280E-01
0.51664	3.98083E+00	2.78440E-01
0.52098	3.96396E+00	2.68350E-01
0.52539	3.94746E+00	2.58050E-01
0.52988	3.93130E+00	2.50240E-01
0.53445	3.91583E+00	2.43240E-01
0.53910	3.90111E+00	2.35090E-01
0.54383	3.88690E+00	2.27080E-01
0.54864	3.87292E+00	2.20070E-01
0.55354	3.85968E+00	2.12800E-01
0.55853	3.84712E+00	2.05330E-01
0.56360	3.83502E+00	1.97970E-01
0.56877	3.82307E+00	1.91340E-01
0.57404	3.81226E+00	1.84390E-01
0.57940	3.80180E+00	1.77860E-01
0.58487	3.79198E+00	1.70230E-01
0.59044	3.78254E+00	1.60940E-01
0.59612	3.77233E+00	1.51060E-01
0.60191	3.75970E+00	1.40670E-01
0.60781	3.74621E+00	1.33320E-01
0.61382	3.73305E+00	1.27280E-01
0.61996	3.72061E+00	1.21860E-01
0.62623	3.70867E+00	1.16710E-01
0.63262	3.69642E+00	1.12050E-01
0.63914	3.68485E+00	1.08550E-01
0.64579	3.67456E+00	1.05320E-01
0.65259	3.66512E+00	1.02210E-01
0.65954	3.65603E+00	9.90400E-02
0.66663	3.64825E+00	9.54800E-02
0.67387	3.64243E+00	9.12000E-02
0.68128	3.63655E+00	8.61100E-02
0.68885	3.63340E+00	8.04800E-02
0.69659	3.63413E+00	7.03400E-02
0.70450	3.63939E+00	4.80000E-02
0.71260	3.61798E+00	1.60500E-02
0.72089	3.59832E+00	5.22000E-03
0.72937	3.57879E+00	2.97000E-03
0.73805	3.55925E+00	1.91000E-03
0.74694	3.54133E+00	1.22000E-03
0.75605	3.53059E+00	1.69000E-03
0.76539	3.52043E+00	1.83000E-03
0.77495	3.50676E+00	1.63000E-03
0.78476	3.49185E+00	1.13000E-03
0.79482	3.48217E+00	6.29000E-04
0.80515	3.47239E+00	1.07000E-04
0.81574	3.46304E+00	0.00000E+00
0.82662	3.45738E+00	0.00000E+00
0.83779	3.45286E+00	0.00000E+00
0.84926	3.44305E+00	0.00000E+00
0.86106	3.43508E+00	0.00000E+00
0.87319	3.43032E+00	0.00000E+00
0.88566	3.42311E+00	0.00000E+00
0.89850	3.41437E+00	0.00000E+00
0.91171	3.41094E+00	0.00000E+00
0.92532	3.40352E+00	0.00000E+00
0.93934	3.39662E+00	0.00000E+00
0.95379	3.39028E+00	0.00000E+00
0.96869	3.38430E+00	0.00000E+00
0.98407	3.37835E+00	0.00000E+00
0.99994	3.37246E+00	0.00000E+00
1.01633	3.36695E+00	0.00000E+00
1.03327	3.36185E+00	0.00000E+00
1.05078	3.35701E+00	0.00000E+00
1.06890	3.35221E+00	0.00000E+00
1.08765	3.34744E+00	0.00000E+00
1.10708	3.34296E+00	0.00000E+00
1.12721	3.33875E+00	0.00000E+00
1.14808	3.33471E+00	0.00000E+00
1.16974	3.33070E+00	0.00000E+00
1.19224	3.32673E+00	0.00000E+00
1.21561	3.32298E+00	0.00000E+00
1.23993	3.31943E+00	0.00000E+00
1.26523	3.31601E+00	0.00000E+00
1.29159	3.30863E+00	0.00000E+00
1.31907	3.30327E+00	0.00000E+00
1.34775	3.30611E+00	0.00000E+00
1.37770	3.30316E+00	0.00000E+00
1.40901	3.30035E+00	0.00000E+00
1.44177	3.29755E+00	0.00000E+00
1.47610	3.29477E+00	0.00000E+00
1.51210	3.29215E+00	0.00000E+00
1.54991	3.28365E+00	0.00000E+00
1.58965	3.28525E+00	0.00000E+00
1.63148	3.28488E+00	0.00000E+00
1.67558	3.28251E+00	0.00000E+00
1.72212	3.28030E+00	0.00000E+00
1.77132	3.27821E+00	0.00000E+00
1.82342	3.27810E+00	0.00000E+00
1.87868	3.27582E+00	0.00000E+00
