Material: semiconductor alloys / AlAs-GaAs / Papatryfonos-9.7
Optical constants. K. Papatryfonos, T. Angelova, A. Brimont, B. Reid, S. Guldin, P. R. Smith, M. Tang, K. Li, A. J. Seeds, H. Liu, D. R. Selviah. Refractive indices of MBE-grown AlxGa1-xAs ternary alloys in the transparent wavelength region, AIP Adv. 11, 025327 (2021) (Numerical data kindly provided by Konstantinos Papatryfonos)
Comments: AlxGa1-xAs; x = 0.097
Specs: {"n_absolute": true, "wavelength_vacuum": true}
wavelength (um)	n	k
0.26049	3.50325E+00	3.71369E+00
0.26159	3.56940E+00	3.65080E+00
0.26270	3.63061E+00	3.58686E+00
0.26381	3.68481E+00	3.52288E+00
0.26494	3.73537E+00	3.45923E+00
0.26608	3.78349E+00	3.39711E+00
0.26723	3.82887E+00	3.33627E+00
0.26838	3.87025E+00	3.27683E+00
0.26955	3.90881E+00	3.21988E+00
0.27073	3.94266E+00	3.16123E+00
0.27191	3.97228E+00	3.09865E+00
0.27311	3.99722E+00	3.03144E+00
0.27432	4.01604E+00	2.95940E+00
0.27554	4.02728E+00	2.88361E+00
0.27677	4.03274E+00	2.80696E+00
0.27801	4.03167E+00	2.73069E+00
0.27926	4.02508E+00	2.65584E+00
0.28053	4.01349E+00	2.58381E+00
0.28180	3.99847E+00	2.51607E+00
0.28309	3.98034E+00	2.45253E+00
0.28439	3.95980E+00	2.39384E+00
0.28570	3.93802E+00	2.33936E+00
0.28702	3.91435E+00	2.28867E+00
0.28835	3.89017E+00	2.24294E+00
0.28970	3.86599E+00	2.20155E+00
0.29106	3.84176E+00	2.16412E+00
0.29244	3.81794E+00	2.13033E+00
0.29382	3.79520E+00	2.09980E+00
0.29522	3.77310E+00	2.07364E+00
0.29663	3.75219E+00	2.05025E+00
0.29806	3.73196E+00	2.02973E+00
0.29950	3.71281E+00	2.01164E+00
0.30095	3.69506E+00	1.99520E+00
0.30242	3.67805E+00	1.98122E+00
0.30390	3.66194E+00	1.96931E+00
0.30540	3.64704E+00	1.95906E+00
0.30691	3.63320E+00	1.94998E+00
0.30844	3.62012E+00	1.94135E+00
0.30998	3.60800E+00	1.93479E+00
0.31154	3.59718E+00	1.92967E+00
0.31311	3.58733E+00	1.92536E+00
0.31470	3.57849E+00	1.92180E+00
0.31631	3.57236E+00	1.91920E+00
0.31793	3.56652E+00	1.91787E+00
0.31957	3.56241E+00	1.91730E+00
0.32122	3.55881E+00	1.91736E+00
0.32290	3.55434E+00	1.91804E+00
0.32459	3.55056E+00	1.91976E+00
0.32630	3.54928E+00	1.92197E+00
0.32802	3.54673E+00	1.92494E+00
0.32977	3.54714E+00	1.92856E+00
0.33153	3.54665E+00	1.93264E+00
0.33331	3.54831E+00	1.93840E+00
0.33512	3.55014E+00	1.94417E+00
0.33694	3.55213E+00	1.95053E+00
0.33878	3.55415E+00	1.95756E+00
0.34064	3.55858E+00	1.96531E+00
0.34252	3.56347E+00	1.97361E+00
0.34442	3.56819E+00	1.98265E+00
0.34635	3.57406E+00	1.99113E+00
0.34829	3.58284E+00	2.00090E+00
0.35026	3.59287E+00	2.01356E+00
0.35225	3.60597E+00	2.02645E+00
0.35426	3.61820E+00	2.03971E+00
0.35630	3.63185E+00	2.05251E+00
0.35836	3.64835E+00	2.06587E+00
0.36044	3.67004E+00	2.08052E+00
0.36255	3.69176E+00	2.09624E+00
0.36468	3.72468E+00	2.11337E+00
0.36684	3.75113E+00	2.13200E+00
0.36903	3.79157E+00	2.15201E+00
0.37124	3.84758E+00	2.17382E+00
0.37347	3.90359E+00	2.19726E+00
0.37574	3.95878E+00	2.22084E+00
0.37803	4.04390E+00	2.24151E+00
0.38035	4.11931E+00	2.25439E+00
0.38269	4.19513E+00	2.24548E+00
0.38507	4.26543E+00	2.21535E+00
0.38748	4.32588E+00	2.16793E+00
0.38991	4.37527E+00	2.11065E+00
0.39238	4.41452E+00	2.05419E+00
0.39488	4.44927E+00	2.00693E+00
0.39741	4.48444E+00	1.97050E+00
0.39998	4.52490E+00	1.94392E+00
0.40257	4.57597E+00	1.92746E+00
0.40520	4.65000E+00	1.92268E+00
0.40787	4.74201E+00	1.91555E+00
0.41057	4.83496E+00	1.87649E+00
0.41331	4.91285E+00	1.78557E+00
0.41608	4.96104E+00	1.64194E+00
0.41889	4.97172E+00	1.47729E+00
0.42174	4.95122E+00	1.32606E+00
0.42463	4.90149E+00	1.19562E+00
0.42756	4.84063E+00	1.08404E+00
0.43053	4.79500E+00	9.88890E-01
0.43354	4.74866E+00	9.11450E-01
0.43659	4.70311E+00	8.46760E-01
0.43969	4.65889E+00	7.91130E-01
0.44283	4.61591E+00	7.41780E-01
0.44602	4.57549E+00	6.96660E-01
0.44925	4.53639E+00	6.59330E-01
0.45253	4.49888E+00	6.23760E-01
0.45586	4.46295E+00	5.92150E-01
0.45923	4.42899E+00	5.63690E-01
0.46266	4.39646E+00	5.38440E-01
0.46614	4.36511E+00	5.15980E-01
0.46967	4.33549E+00	4.93990E-01
0.47325	4.30668E+00	4.73420E-01
0.47689	4.27944E+00	4.54230E-01
0.48059	4.25319E+00	4.35910E-01
0.48435	4.22791E+00	4.20290E-01
0.48816	4.20362E+00	4.04810E-01
0.49203	4.18031E+00	3.90740E-01
0.49597	4.15792E+00	3.78060E-01
0.49997	4.13632E+00	3.65750E-01
0.50403	4.11532E+00	3.52770E-01
0.50817	4.09498E+00	3.41250E-01
0.51237	4.07533E+00	3.29550E-01
0.51664	4.05662E+00	3.17300E-01
0.52098	4.03850E+00	3.06650E-01
0.52539	4.02076E+00	2.96370E-01
0.52988	4.00369E+00	2.88140E-01
0.53445	3.98713E+00	2.80940E-01
0.53910	3.97127E+00	2.73340E-01
0.54383	3.95592E+00	2.64630E-01
0.54864	3.94112E+00	2.56460E-01
0.55354	3.92691E+00	2.48480E-01
0.55853	3.91328E+00	2.41510E-01
0.56360	3.89997E+00	2.34580E-01
0.56877	3.88759E+00	2.24930E-01
0.57404	3.87558E+00	2.16430E-01
0.57940	3.86390E+00	2.09930E-01
0.58487	3.85264E+00	2.05050E-01
0.59044	3.84135E+00	1.98930E-01
0.59612	3.82923E+00	1.93570E-01
0.60191	3.81688E+00	1.87710E-01
0.60781	3.80512E+00	1.81560E-01
0.61382	3.79360E+00	1.75670E-01
0.61996	3.78260E+00	1.70700E-01
0.62623	3.77188E+00	1.63740E-01
0.63262	3.76200E+00	1.56860E-01
0.63914	3.75256E+00	1.49550E-01
0.64579	3.74404E+00	1.41230E-01
0.65259	3.73528E+00	1.30790E-01
0.65954	3.72621E+00	1.22700E-01
0.66663	3.71722E+00	1.16070E-01
0.67387	3.70985E+00	1.10580E-01
0.68128	3.70272E+00	1.05900E-01
0.68885	3.69415E+00	1.01620E-01
0.69659	3.68671E+00	9.81500E-02
0.70450	3.67846E+00	9.44200E-02
0.71260	3.67115E+00	9.04400E-02
0.72089	3.66355E+00	8.65200E-02
0.72937	3.65977E+00	8.16700E-02
0.73805	3.66510E+00	7.81200E-02
0.74694	3.66943E+00	7.40500E-02
0.75605	3.65846E+00	6.92400E-02
0.76539	3.63048E+00	6.33200E-02
0.77495	3.61301E+00	5.47100E-02
0.78476	3.59749E+00	3.11400E-02
0.79482	3.58185E+00	1.41500E-02
0.80515	3.56993E+00	6.75000E-03
0.81574	3.55819E+00	5.28000E-03
0.82662	3.54890E+00	7.97000E-04
0.83779	3.54009E+00	7.10000E-05
0.84926	3.52674E+00	1.60000E-05
0.86106	3.51648E+00	0.00000E+00
0.87319	3.50667E+00	0.00000E+00
0.88566	3.49857E+00	0.00000E+00
0.89850	3.48987E+00	0.00000E+00
0.91171	3.48348E+00	0.00000E+00
0.92532	3.47507E+00	0.00000E+00
0.93934	3.46691E+00	0.00000E+00
0.95379	3.45916E+00	0.00000E+00
0.96869	3.45160E+00	0.00000E+00
0.98407	3.44413E+00	0.00000E+00
0.99994	3.43780E+00	0.00000E+00
1.01633	3.43165E+00	0.00000E+00
1.03327	3.42582E+00	0.00000E+00
1.05078	3.42012E+00	0.00000E+00
1.06890	3.41447E+00	0.00000E+00
1.08765	3.40947E+00	0.00000E+00
1.10708	3.40462E+00	0.00000E+00
1.12721	3.39997E+00	0.00000E+00
1.14808	3.39542E+00	0.00000E+00
1.16974	3.39091E+00	0.00000E+00
1.19224	3.38691E+00	0.00000E+00
1.21561	3.38301E+00	0.00000E+00
1.23993	3.37926E+00	0.00000E+00
1.26523	3.37560E+00	0.00000E+00
1.29159	3.37196E+00	0.00000E+00
1.31907	3.36858E+00	0.00000E+00
1.34775	3.36531E+00	0.00000E+00
1.37770	3.36218E+00	0.00000E+00
1.40901	3.35914E+00	0.00000E+00
1.44177	3.35611E+00	0.00000E+00
1.47610	3.35333E+00	0.00000E+00
1.51210	3.35058E+00	0.00000E+00
1.54991	3.34349E+00	0.00000E+00
1.58965	3.34538E+00	0.00000E+00
1.63148	3.34582E+00	0.00000E+00
1.67558	3.34403E+00	0.00000E+00
1.72212	3.34162E+00	0.00000E+00
1.77132	3.33920E+00	0.00000E+00
1.82342	3.33765E+00	0.00000E+00
1.87868	3.33542E+00	0.00000E+00
