Material: semiconductor alloys / AlAs-GaAs / Papatryfonos-45.2
Optical constants. K. Papatryfonos, T. Angelova, A. Brimont, B. Reid, S. Guldin, P. R. Smith, M. Tang, K. Li, A. J. Seeds, H. Liu, D. R. Selviah. Refractive indices of MBE-grown AlxGa1-xAs ternary alloys in the transparent wavelength region, AIP Adv. 11, 025327 (2021) (Numerical data kindly provided by Konstantinos Papatryfonos)
Comments: AlxGa1-xAs; x = 0.452
Specs: {"n_absolute": true, "wavelength_vacuum": true}
wavelength (um)	n	k
0.26049	3.51372E+00	3.78850E+00
0.26159	3.61822E+00	3.72601E+00
0.26270	3.71793E+00	3.65284E+00
0.26381	3.81057E+00	3.56877E+00
0.26494	3.88712E+00	3.47405E+00
0.26608	3.95268E+00	3.37424E+00
0.26723	4.00723E+00	3.27193E+00
0.26838	4.05007E+00	3.16899E+00
0.26955	4.07990E+00	3.06694E+00
0.27073	4.09828E+00	2.96799E+00
0.27191	4.10742E+00	2.87345E+00
0.27311	4.10872E+00	2.78389E+00
0.27432	4.10364E+00	2.69976E+00
0.27554	4.09408E+00	2.62102E+00
0.27677	4.07850E+00	2.54874E+00
0.27801	4.05987E+00	2.48336E+00
0.27926	4.03886E+00	2.42341E+00
0.28053	4.01653E+00	2.36895E+00
0.28180	3.99416E+00	2.31962E+00
0.28309	3.96957E+00	2.27527E+00
0.28439	3.94618E+00	2.23505E+00
0.28570	3.92289E+00	2.19874E+00
0.28702	3.89985E+00	2.16580E+00
0.28835	3.87721E+00	2.13576E+00
0.28970	3.85556E+00	2.10918E+00
0.29106	3.83502E+00	2.08543E+00
0.29244	3.81541E+00	2.06383E+00
0.29382	3.79696E+00	2.04443E+00
0.29522	3.77983E+00	2.02700E+00
0.29663	3.76393E+00	2.01135E+00
0.29806	3.74872E+00	1.99800E+00
0.29950	3.73505E+00	1.98575E+00
0.30095	3.72216E+00	1.97469E+00
0.30242	3.70964E+00	1.96500E+00
0.30390	3.69868E+00	1.95670E+00
0.30540	3.68860E+00	1.94982E+00
0.30691	3.67973E+00	1.94385E+00
0.30844	3.67177E+00	1.93853E+00
0.30998	3.66449E+00	1.93384E+00
0.31154	3.65804E+00	1.93035E+00
0.31311	3.65303E+00	1.92820E+00
0.31470	3.64882E+00	1.92658E+00
0.31631	3.64571E+00	1.92573E+00
0.31793	3.64371E+00	1.92574E+00
0.31957	3.64262E+00	1.92645E+00
0.32122	3.64259E+00	1.92795E+00
0.32290	3.64369E+00	1.93016E+00
0.32459	3.64591E+00	1.93304E+00
0.32630	3.64919E+00	1.93663E+00
0.32802	3.65367E+00	1.94088E+00
0.32977	3.66006E+00	1.94618E+00
0.33153	3.66741E+00	1.95228E+00
0.33331	3.67592E+00	1.95918E+00
0.33512	3.68602E+00	1.96680E+00
0.33694	3.69809E+00	1.97497E+00
0.33878	3.71158E+00	1.98442E+00
0.34064	3.72808E+00	1.99469E+00
0.34252	3.74713E+00	2.00593E+00
0.34442	3.76936E+00	2.01800E+00
0.34635	3.79481E+00	2.03080E+00
0.34829	3.82553E+00	2.04430E+00
0.35026	3.86155E+00	2.05733E+00
0.35225	3.90417E+00	2.06845E+00
0.35426	3.95316E+00	2.07597E+00
0.35630	4.00775E+00	2.07808E+00
0.35836	4.06826E+00	2.07076E+00
0.36044	4.12843E+00	2.05254E+00
0.36255	4.18606E+00	2.02594E+00
0.36468	4.23930E+00	1.99348E+00
0.36684	4.28689E+00	1.95774E+00
0.36903	4.32958E+00	1.92156E+00
0.37124	4.37022E+00	1.88785E+00
0.37347	4.41304E+00	1.85649E+00
0.37574	4.46069E+00	1.82593E+00
0.37803	4.51529E+00	1.79305E+00
0.38035	4.58010E+00	1.75035E+00
0.38269	4.64949E+00	1.68546E+00
0.38507	4.71232E+00	1.60165E+00
0.38748	4.76047E+00	1.50250E+00
0.38991	4.78839E+00	1.39322E+00
0.39238	4.79421E+00	1.28441E+00
0.39488	4.78245E+00	1.18568E+00
0.39741	4.76060E+00	1.09638E+00
0.39998	4.73192E+00	1.01599E+00
0.40257	4.69900E+00	9.43970E-01
0.40520	4.66328E+00	8.80380E-01
0.40787	4.62638E+00	8.25220E-01
0.41057	4.58943E+00	7.75150E-01
0.41331	4.55309E+00	7.29810E-01
0.41608	4.51785E+00	6.88970E-01
0.41889	4.48339E+00	6.52620E-01
0.42174	4.44958E+00	6.20450E-01
0.42463	4.41712E+00	5.90150E-01
0.42756	4.38563E+00	5.61470E-01
0.43053	4.35489E+00	5.35090E-01
0.43354	4.32536E+00	5.11080E-01
0.43659	4.29715E+00	4.88770E-01
0.43969	4.26976E+00	4.67800E-01
0.44283	4.24305E+00	4.48300E-01
0.44602	4.21710E+00	4.30160E-01
0.44925	4.19207E+00	4.13010E-01
0.45253	4.16774E+00	3.96820E-01
0.45586	4.14447E+00	3.82650E-01
0.45923	4.12196E+00	3.68560E-01
0.46266	4.09997E+00	3.55320E-01
0.46614	4.07881E+00	3.44780E-01
0.46967	4.05883E+00	3.29940E-01
0.47325	4.03927E+00	3.16010E-01
0.47689	4.02044E+00	3.04490E-01
0.48059	4.00215E+00	2.93970E-01
0.48435	3.98430E+00	2.81950E-01
0.48816	3.96661E+00	2.73620E-01
0.49203	3.95010E+00	2.63910E-01
0.49597	3.93411E+00	2.53800E-01
0.49997	3.91862E+00	2.43950E-01
0.50403	3.90370E+00	2.34840E-01
0.50817	3.88926E+00	2.26200E-01
0.51237	3.87585E+00	2.18170E-01
0.51664	3.86310E+00	2.10780E-01
0.52098	3.85100E+00	2.03290E-01
0.52539	3.83936E+00	1.94880E-01
0.52988	3.82698E+00	1.85540E-01
0.53445	3.81301E+00	1.75390E-01
0.53910	3.79825E+00	1.65550E-01
0.54383	3.78303E+00	1.56510E-01
0.54864	3.76777E+00	1.48480E-01
0.55354	3.75358E+00	1.41390E-01
0.55853	3.74003E+00	1.34250E-01
0.56360	3.72694E+00	1.27250E-01
0.56877	3.71433E+00	1.20520E-01
0.57404	3.70237E+00	1.14030E-01
0.57940	3.69148E+00	1.07320E-01
0.58487	3.68147E+00	1.00680E-01
0.59044	3.67218E+00	9.32700E-02
0.59612	3.66381E+00	8.63500E-02
0.60191	3.65913E+00	7.96200E-02
0.60781	3.66213E+00	6.96300E-02
0.61382	3.65827E+00	3.73900E-02
0.61996	3.63519E+00	1.42600E-02
0.62623	3.60707E+00	3.73000E-03
0.63262	3.58299E+00	1.86000E-03
0.63914	3.56372E+00	2.68000E-03
0.64579	3.54636E+00	1.34000E-03
0.65259	3.52940E+00	9.00000E-04
0.65954	3.51299E+00	4.31000E-04
0.66663	3.49737E+00	1.43000E-04
0.67387	3.48304E+00	1.90000E-04
0.68128	3.46957E+00	4.03000E-04
0.68885	3.45716E+00	5.54000E-04
0.69659	3.44615E+00	3.83000E-04
0.70450	3.43482E+00	1.60000E-04
0.71260	3.42473E+00	3.10000E-05
0.72089	3.41438E+00	0.00000E+00
0.72937	3.40418E+00	0.00000E+00
0.73805	3.39480E+00	0.00000E+00
0.74694	3.38754E+00	0.00000E+00
0.75605	3.37932E+00	0.00000E+00
0.76539	3.36973E+00	0.00000E+00
0.77495	3.35902E+00	0.00000E+00
0.78476	3.34746E+00	0.00000E+00
0.79482	3.33746E+00	0.00000E+00
0.80515	3.32778E+00	0.00000E+00
0.81574	3.31922E+00	0.00000E+00
0.82662	3.30924E+00	0.00000E+00
0.83779	3.30375E+00	0.00000E+00
0.84926	3.29667E+00	0.00000E+00
0.86106	3.29123E+00	0.00000E+00
0.87319	3.28616E+00	0.00000E+00
0.88566	3.28004E+00	0.00000E+00
0.89850	3.27420E+00	0.00000E+00
0.91171	3.26806E+00	0.00000E+00
0.92532	3.26199E+00	0.00000E+00
0.93934	3.25597E+00	0.00000E+00
0.95379	3.25165E+00	0.00000E+00
0.96869	3.24758E+00	0.00000E+00
0.98407	3.24399E+00	0.00000E+00
0.99994	3.24050E+00	0.00000E+00
1.01633	3.23693E+00	0.00000E+00
1.03327	3.23201E+00	0.00000E+00
1.05078	3.22694E+00	0.00000E+00
1.06890	3.22198E+00	0.00000E+00
1.08765	3.21709E+00	0.00000E+00
1.10708	3.21239E+00	0.00000E+00
1.12721	3.20777E+00	0.00000E+00
1.14808	3.20327E+00	0.00000E+00
1.16974	3.19890E+00	0.00000E+00
1.19224	3.19460E+00	0.00000E+00
1.21561	3.19043E+00	0.00000E+00
1.23993	3.18625E+00	0.00000E+00
1.26523	3.18225E+00	0.00000E+00
1.29159	3.17836E+00	0.00000E+00
1.31907	3.17447E+00	0.00000E+00
1.34775	3.17077E+00	0.00000E+00
1.37770	3.16710E+00	0.00000E+00
1.40901	3.16348E+00	0.00000E+00
1.44177	3.15996E+00	0.00000E+00
1.47610	3.15650E+00	0.00000E+00
1.51210	3.15316E+00	0.00000E+00
1.54991	3.14984E+00	0.00000E+00
1.58965	3.14661E+00	0.00000E+00
1.63148	3.14347E+00	0.00000E+00
1.67558	3.14040E+00	0.00000E+00
1.72212	3.13741E+00	0.00000E+00
1.77132	3.13441E+00	0.00000E+00
1.82342	3.13149E+00	0.00000E+00
1.87868	3.12917E+00	0.00000E+00
