Material: crystalline minerals / franckeite / Gant
Optical constants. P. Gant, F. Ghasemi, D. Maeso, C. Munuera, E. López-Elvira, R. Frisenda, D. Pérez De Lara, G. Rubio-Bollinger, M. Garcia-Hernandez, A. Castellanos-Gomez4. Optical contrast and refractive index of natural van der Waals heterostructure nanosheets of franckeite, Beilstein J. Nanotechnol. 8, 2357-2362 (2017) (Numerical data kindly provided by Andres Castellanos-Gomez)
Comments: Optical constants derived from reflectance spectra of 25-170 nm franckeite films on SiO2/Si substrate.
Specs: {"n_absolute": true, "wavelength_vacuum": true, "substrate": "SiO2/Si"}
wavelength (um)	n	k
0.4439741	2.6000	1.3333
0.4448505	2.3981	1.3333
0.4457270	2.3829	1.3505
0.4466038	2.3924	1.3448
0.4474807	2.4057	1.3352
0.4483579	2.4133	1.3333
0.4492352	2.4095	1.3371
0.4501127	2.4095	1.3371
0.4509904	2.4152	1.3371
0.4518684	2.4210	1.3371
0.4527464	2.4229	1.3371
0.4536247	2.4229	1.3371
0.4545032	2.4305	1.3371
0.4553818	2.4400	1.3352
0.4562607	2.4514	1.3314
0.4571397	2.4629	1.3295
0.4580189	2.4724	1.3295
0.4588984	2.4781	1.3295
0.4597780	2.4895	1.3295
0.4606578	2.5086	1.3257
0.4615378	2.5143	1.3257
0.4624179	2.5162	1.3295
0.4632983	2.5295	1.3276
0.4641789	2.5410	1.3238
0.4650596	2.5524	1.3238
0.4659405	2.5657	1.3238
0.4668216	2.5810	1.3219
0.4677029	2.5981	1.3200
0.4685844	2.6133	1.3181
0.4694661	2.6286	1.3162
0.4703480	2.6419	1.3162
0.4712300	2.6590	1.3143
0.4721123	2.6781	1.3105
0.4729947	2.6952	1.3086
0.4738773	2.7181	1.3048
0.4747601	2.7333	1.3029
0.4756430	2.7467	1.3010
0.4765262	2.7638	1.2990
0.4774096	2.7829	1.2952
0.4782931	2.8000	1.2914
0.4791769	2.8152	1.2895
0.4800608	2.8305	1.2857
0.4809449	2.8419	1.2819
0.4818291	2.8571	1.2781
0.4827136	2.8743	1.2743
0.4835983	2.8914	1.2667
0.4844831	2.9048	1.2629
0.4853681	2.9219	1.2590
0.4862533	2.9390	1.2552
0.4871387	2.9486	1.2514
0.4880243	2.9619	1.2457
0.4889100	2.9752	1.2400
0.4897960	2.9886	1.2343
0.4906821	2.9981	1.2286
0.4915684	3.0095	1.2248
0.4924549	3.0190	1.2210
0.4933416	3.0305	1.2152
0.4942284	3.0438	1.2095
0.4951155	3.0571	1.2019
0.4960027	3.0686	1.1981
0.4968901	3.0762	1.1924
0.4977776	3.0895	1.1867
0.4986654	3.0990	1.1810
0.4995534	3.1067	1.1733
0.5004415	3.1143	1.1676
0.5013298	3.1276	1.1619
0.5022183	3.1352	1.1581
0.5031069	3.1429	1.1505
0.5039958	3.1524	1.1448
0.5048848	3.1638	1.1410
0.5057740	3.1714	1.1352
0.5066634	3.1771	1.1295
0.5075530	3.1848	1.1219
0.5084428	3.1905	1.1162
0.5093327	3.2019	1.1086
0.5102228	3.2133	1.1048
0.5111131	3.2210	1.0990
0.5120036	3.2267	1.0933
0.5128942	3.2362	1.0838
0.5137851	3.2419	1.0781
0.5146761	3.2495	1.0705
0.5155673	3.2552	1.0648
0.5164586	3.2610	1.0590
0.5173501	3.2667	1.0533
0.5182419	3.2724	1.0476
0.5191338	3.2781	1.0419
0.5200258	3.2838	1.0362
0.5209181	3.2914	1.0286
0.5218106	3.2971	1.0229
0.5227031	3.3048	1.0152
0.5235959	3.3086	1.0114
0.5244890	3.3143	1.0038
0.5253821	3.3181	0.9962
0.5262754	3.3219	0.9886
0.5271688	3.3257	0.9829
0.5280625	3.3333	0.9733
0.5289564	3.3390	0.9676
0.5298504	3.3429	0.9638
0.5307446	3.3429	0.9600
0.5316390	3.3448	0.9505
0.5325335	3.3486	0.9448
0.5334282	3.3543	0.9390
0.5343231	3.3600	0.9333
0.5352183	3.3638	0.9276
0.5361135	3.3657	0.9219
0.5370089	3.3695	0.9162
0.5379045	3.3714	0.9086
0.5388004	3.3752	0.9048
0.5396963	3.3810	0.8990
0.5405924	3.3829	0.8933
0.5414887	3.3829	0.8857
0.5423851	3.3867	0.8800
0.5432818	3.3905	0.8762
0.5441787	3.3943	0.8724
0.5450756	3.4000	0.8667
0.5459727	3.4038	0.8610
0.5468701	3.4076	0.8552
0.5477676	3.4095	0.8495
0.5486653	3.4133	0.8419
0.5495632	3.4171	0.8381
0.5504612	3.4190	0.8343
0.5513594	3.4229	0.8305
0.5522577	3.4267	0.8267
0.5531563	3.4324	0.8210
0.5540551	3.4362	0.8152
0.5549539	3.4362	0.8114
0.5558530	3.4362	0.8057
0.5567522	3.4381	0.8019
0.5576516	3.4419	0.7981
0.5585512	3.4438	0.7943
0.5594509	3.4438	0.7886
0.5603508	3.4438	0.7848
0.5612509	3.4476	0.7790
0.5621511	3.4514	0.7752
0.5630516	3.4552	0.7714
0.5639521	3.4571	0.7657
0.5648530	3.4571	0.7600
0.5657539	3.4571	0.7562
0.5666549	3.4571	0.7524
0.5675563	3.4571	0.7467
0.5684577	3.4571	0.7429
0.5693593	3.4610	0.7390
0.5702611	3.4590	0.7333
0.5711630	3.4571	0.7295
0.5720651	3.4610	0.7257
0.5729674	3.4629	0.7200
0.5738699	3.4629	0.7162
0.5747725	3.4629	0.7124
0.5756753	3.4629	0.7067
0.5765782	3.4629	0.7010
0.5774814	3.4629	0.6971
0.5783847	3.4667	0.6933
0.5792881	3.4705	0.6876
0.5801917	3.4705	0.6819
0.5810955	3.4705	0.6781
0.5819995	3.4705	0.6743
0.5829035	3.4705	0.6686
0.5838079	3.4705	0.6648
0.5847123	3.4705	0.6590
0.5856169	3.4705	0.6533
0.5865217	3.4705	0.6476
0.5874267	3.4705	0.6419
0.5883318	3.4705	0.6381
0.5892371	3.4705	0.6343
0.5901425	3.4705	0.6267
0.5910481	3.4705	0.6229
0.5919539	3.4705	0.6171
0.5928598	3.4705	0.6114
0.5937660	3.4705	0.6076
0.5946722	3.4705	0.6000
0.5955786	3.4724	0.5943
0.5964853	3.4762	0.5886
0.5973920	3.4762	0.5829
0.5982990	3.4762	0.5752
0.5992060	3.4762	0.5714
0.6001133	3.4762	0.5657
0.6010206	3.4762	0.5600
0.6019282	3.4762	0.5524
0.6028360	3.4781	0.5486
0.6037439	3.4819	0.5429
0.6046520	3.4838	0.5352
0.6055602	3.4838	0.5314
0.6064686	3.4838	0.5257
0.6073771	3.4838	0.5200
0.6082859	3.4876	0.5124
0.6091948	3.4895	0.5086
0.6101038	3.4895	0.5029
0.6110130	3.4914	0.4952
0.6119223	3.4952	0.4914
0.6128319	3.4971	0.4857
0.6137415	3.4971	0.4800
0.6146514	3.5010	0.4724
0.6155614	3.5029	0.4705
0.6164716	3.5067	0.4667
0.6173818	3.5105	0.4590
0.6182924	3.5105	0.4533
0.6192029	3.5124	0.4476
0.6201137	3.5162	0.4438
0.6210247	3.5162	0.4400
0.6219359	3.5162	0.4343
0.6228471	3.5162	0.4305
0.6237586	3.5200	0.4267
0.6246702	3.5238	0.4229
0.6255819	3.5257	0.4210
0.6264938	3.5295	0.4171
0.6274059	3.5295	0.4133
0.6283182	3.5295	0.4095
0.6292305	3.5295	0.4057
0.6301431	3.5295	0.4038
0.6310558	3.5295	0.4038
0.6319686	3.5333	0.4000
0.6328817	3.5371	0.3962
0.6337948	3.5371	0.3962
0.6347082	3.5352	0.3962
0.6356216	3.5314	0.3924
0.6365353	3.5295	0.3905
0.6374491	3.5295	0.3905
0.6383631	3.5295	0.3905
0.6392772	3.5276	0.3886
0.6401914	3.5238	0.3848
0.6411059	3.5238	0.3829
0.6420205	3.5219	0.3829
0.6429352	3.5162	0.3829
0.6438501	3.5105	0.3829
0.6447651	3.5105	0.3810
0.6456804	3.5067	0.3771
0.6465957	3.5029	0.3771
0.6475112	3.4990	0.3752
0.6484269	3.4971	0.3714
0.6493427	3.4933	0.3695
0.6502586	3.4857	0.3695
0.6511748	3.4838	0.3676
0.6520911	3.4800	0.3638
0.6530075	3.4762	0.3619
0.6539241	3.4743	0.3581
0.6548408	3.4705	0.3543
0.6557577	3.4705	0.3505
0.6566748	3.4686	0.3486
0.6575921	3.4648	0.3448
0.6585094	3.4629	0.3410
0.6594269	3.4629	0.3371
0.6603445	3.4629	0.3333
0.6612624	3.4629	0.3295
0.6621803	3.4629	0.3257
0.6630984	3.4629	0.3238
0.6640167	3.4629	0.3200
0.6649351	3.4667	0.3162
0.6658537	3.4705	0.3124
0.6667724	3.4705	0.3105
0.6676913	3.4705	0.3067
0.6686103	3.4743	0.3029
0.6695295	3.4762	0.3010
0.6704489	3.4800	0.2971
0.6713683	3.4838	0.2952
0.6722880	3.4876	0.2914
0.6732077	3.4914	0.2895
0.6741277	3.4952	0.2876
0.6750477	3.4990	0.2838
0.6759679	3.5029	0.2838
0.6768883	3.5067	0.2800
0.6778088	3.5105	0.2762
0.6787295	3.5143	0.2762
0.6796503	3.5200	0.2762
0.6805713	3.5257	0.2762
0.6814924	3.5295	0.2743
0.6824137	3.5333	0.2705
0.6833351	3.5390	0.2705
0.6842567	3.5448	0.2705
0.6851784	3.5486	0.2705
0.6861002	3.5543	0.2705
0.6870222	3.5600	0.2705
0.6879444	3.5657	0.2705
0.6888667	3.5714	0.2705
0.6897892	3.5752	0.2705
0.6907118	3.5810	0.2705
0.6916345	3.5848	0.2705
0.6925574	3.5886	0.2705
0.6934805	3.5962	0.2705
0.6944036	3.6019	0.2743
0.6953269	3.6076	0.2762
0.6962504	3.6133	0.2762
0.6971741	3.6190	0.2762
0.6980978	3.6248	0.2762
0.6990218	3.6286	0.2781
0.6999458	3.6343	0.2819
0.7008700	3.6400	0.2838
0.7017943	3.6476	0.2838
0.7027188	3.6533	0.2857
0.7036435	3.6590	0.2895
0.7045682	3.6648	0.2895
0.7054932	3.6705	0.2895
0.7064183	3.6781	0.2914
0.7073435	3.6838	0.2952
0.7082688	3.6914	0.2971
0.7091943	3.6952	0.2971
0.7101200	3.7029	0.2990
0.7110457	3.7086	0.3029
0.7119717	3.7143	0.3029
0.7128978	3.7200	0.3029
0.7138240	3.7276	0.3067
0.7147503	3.7333	0.3105
0.7156768	3.7410	0.3105
0.7166035	3.7467	0.3105
0.7175303	3.7524	0.3143
0.7184572	3.7600	0.3162
0.7193843	3.7657	0.3162
0.7203115	3.7714	0.3200
0.7212389	3.7771	0.3238
0.7221663	3.7848	0.3238
0.7230940	3.7905	0.3238
0.7240218	3.7981	0.3238
0.7249497	3.8038	0.3276
0.7258777	3.8114	0.3295
0.7268060	3.8152	0.3295
0.7277343	3.8229	0.3295
0.7286627	3.8286	0.3333
0.7295914	3.8343	0.3371
0.7305202	3.8400	0.3371
0.7314490	3.8476	0.3371
0.7323781	3.8533	0.3371
0.7333073	3.8610	0.3390
0.7342366	3.8667	0.3429
0.7351661	3.8724	0.3429
0.7360956	3.8800	0.3429
0.7370254	3.8876	0.3429
0.7379552	3.8933	0.3429
0.7388852	3.8990	0.3429
0.7398154	3.9067	0.3429
0.7407457	3.9124	0.3429
0.7416761	3.9200	0.3429
0.7426067	3.9257	0.3429
0.7435374	3.9333	0.3429
0.7444682	3.9390	0.3429
0.7453992	3.9467	0.3429
0.7463303	3.9524	0.3429
0.7472615	3.9600	0.3429
0.7481930	3.9676	0.3390
0.7491245	3.9733	0.3371
0.7500561	3.9810	0.3371
0.7509879	3.9886	0.3371
0.7519199	4.0000	0.3333
0.7528519	4.0057	0.3295
0.7537842	4.0133	0.3295
0.7547165	4.0210	0.3276
0.7556490	4.0305	0.3238
0.7565816	4.0400	0.3200
0.7575143	4.0438	0.3162
0.7584472	4.0495	0.3162
0.7593802	4.0571	0.3124
0.7603134	4.0648	0.3086
0.7612467	4.0705	0.3048
0.7621801	4.0800	0.3029
0.7631136	4.0876	0.2990
0.7640473	4.0933	0.2933
0.7649811	4.1010	0.2895
0.7659151	4.1105	0.2876
0.7668492	4.1162	0.2838
0.7677834	4.1200	0.2800
0.7687178	4.1276	0.2743
0.7696522	4.1352	0.2705
0.7705869	4.1429	0.2667
0.7715216	4.1486	0.2629
0.7724565	4.1505	0.2629
0.7733915	4.1543	0.2610
0.7743267	4.1638	0.2571
0.7752619	4.1695	0.2571
0.7761974	4.1543	0.2667
0.7771329	4.1413	0.2747
