Material: doped crystals / Al-ZnO / Shkondin
Optical constants. E. Shkondin, O. Takayama, M. E. Aryaee Panah, P. Liu, P. V. Larsen, M. D. Mar, F. Jensen, and A. V. Lavrinenko. Large-scale high aspect ratio Al-doped ZnO nanopillars arrays as anisotropic metamaterials, Opt. Mater. Express 7, 1606-1627 (2017) (Numerical data kindly provided by Osamu Takayama)
Comments: Nanopillar.
wavelength (um)	n	k
2.00	0.5836931630	0.9201641538
2.05	0.5712206294	1.0090449517
2.10	0.5638600545	1.0949655289
2.15	0.5604683591	1.1778983100
2.20	0.5601881783	1.2579870120
2.25	0.5623832416	1.3354420479
2.30	0.5665798989	1.4104888469
2.35	0.5724221298	1.4833442127
2.40	0.5796389306	1.5542067565
2.45	0.5880211648	1.6232541251
2.50	0.5974051923	1.6906433528
2.55	0.6076612341	1.7565125243
2.60	0.6186850277	1.8209828690
2.65	0.6303917773	1.8841608787
2.70	0.6427117141	1.9461402703
2.75	0.6555868010	2.0070037303
2.80	0.6689682572	2.0668244309
2.85	0.6828146780	2.1256673326
2.90	0.6970905920	2.1835902960
2.95	0.7117653417	2.2406450284
3.00	0.7268122085	2.2968778899
3.05	0.7422077209	2.3523305802
3.10	0.7579311040	2.4070407245
3.15	0.7739638381	2.4610423754
3.20	0.7902893013	2.5143664434
3.25	0.8068924795	2.5670410669
3.30	0.8237597278	2.6190919326
3.35	0.8408785750	2.6705425521
3.40	0.8582375606	2.7214145023
3.45	0.8758261000	2.7717276354
3.50	0.8936343705	2.8215002617
3.55	0.9116532164	2.8707493101
3.60	0.9298740682	2.9194904690
3.65	0.9482888740	2.9677383108
3.70	0.9668900416	3.0155064015
3.75	0.9856703882	3.0628073978
3.80	1.0046230980	3.1096531334
3.85	1.0237416848	3.1560546956
3.90	1.0430199605	3.2020224939
3.95	1.0624520069	3.2475663212
4.00	1.0820321524	3.2926954079
4.05	1.1017549502	3.3374184717
4.10	1.1216151604	3.3817437612
4.15	1.1416077334	3.4256790955
4.20	1.1617277961	3.4692319005
4.25	1.1819706392	3.5124092403
4.30	1.2023317061	3.5552178472
4.35	1.2228065827	3.5976641476
4.40	1.2433909892	3.6397542862
4.45	1.2640807719	3.6814941476
4.50	1.2848718962	3.7228893761
4.55	1.3057604404	3.7639453935
4.60	1.3267425900	3.8046674160
4.65	1.3478146326	3.8450604686
4.70	1.3689729532	3.8851293987
4.75	1.3902140303	3.9248788891
4.80	1.4115344317	3.9643134687
4.85	1.4329308112	4.0034375236
4.90	1.4543999054	4.0422553061
4.95	1.4759385308	4.0807709435
5.00	1.4975435811	4.1189884467
5.05	1.5192120247	4.1569117168
5.10	1.5409409022	4.1945445522
5.15	1.5627273248	4.2318906552
5.20	1.5845684715	4.2689536370
5.25	1.6064615880	4.3057370234
5.30	1.6284039844	4.3422442598
5.35	1.6503930339	4.3784787153
5.40	1.6724261710	4.4144436870
5.45	1.6945008901	4.4501424038
5.50	1.7166147441	4.4855780300
5.55	1.7387653433	4.5207536684
5.60	1.7609503537	4.5556723633
5.65	1.7831674959	4.5903371035
5.70	1.8054145442	4.6247508244
5.75	1.8276893253	4.6589164110
5.80	1.8499897170	4.6928366995
5.85	1.8723136475	4.7265144798
5.90	1.8946590943	4.7599524971
5.95	1.9170240829	4.7931534537
6.00	1.9394066864	4.8261200108
6.05	1.9618050242	4.8588547898
6.10	1.9842172610	4.8913603737
6.15	2.0066416062	4.9236393087
6.20	2.0290763130	4.9556941050
6.25	2.0515196773	4.9875272383
6.30	2.0739700373	5.0191411505
6.35	2.0964257723	5.0505382510
6.40	2.1188853020	5.0817209175
6.45	2.1413470860	5.1126914969
6.50	2.1638096225	5.1434523058
6.55	2.1862714483	5.1740056317
6.60	2.2087311373	5.2043537335
6.65	2.2311873003	5.2344988421
6.70	2.2536385841	5.2644431611
6.75	2.2760836706	5.2941888674
6.80	2.2985212766	5.3237381115
6.85	2.3209501527	5.3530930186
6.90	2.3433690829	5.3822556884
6.95	2.3657768837	5.4112281960
7.00	2.3881724037	5.4400125921
7.05	2.4105545227	5.4686109038
7.10	2.4329221513	5.4970251343
7.15	2.4552742304	5.5252572642
7.20	2.4776097300	5.5533092508
7.25	2.4999276493	5.5811830293
7.30	2.5222270158	5.6088805128
7.35	2.5445068846	5.6364035926
7.40	2.5667663380	5.6637541383
7.45	2.5890044850	5.6909339987
7.50	2.6112204605	5.7179450013
7.55	2.6334134251	5.7447889531
7.60	2.6555825642	5.7714676407
7.65	2.6777270877	5.7979828305
7.70	2.6998462294	5.8243362691
7.75	2.7219392466	5.8505296832
7.80	2.7440054194	5.8765647801
7.85	2.7660440504	5.9024432480
7.90	2.7880544640	5.9281667560
7.95	2.8100360063	5.9537369543
8.00	2.8319880441	5.9791554744
8.05	2.8539099648	6.0044239298
8.10	2.8758011761	6.0295439153
8.15	2.8976611050	6.0545170079
8.20	2.9194891978	6.0793447667
8.25	2.9412849196	6.1040287333
8.30	2.9630477539	6.1285704315
8.35	2.9847772018	6.1529713682
8.40	3.0064727822	6.1772330328
8.45	3.0281340311	6.2013568981
8.50	3.0497605009	6.2253444199
8.55	3.0713517607	6.2491970375
8.60	3.0929073952	6.2729161737
8.65	3.1144270050	6.2965032352
8.70	3.1359102057	6.3199596123
8.75	3.1573566277	6.3432866797
8.80	3.1787659160	6.3664857962
8.85	3.2001377297	6.3895583048
8.90	3.2214717418	6.4125055333
8.95	3.2427676386	6.4353287942
9.00	3.2640251197	6.4580293847
9.05	3.2852438975	6.4806085871
9.10	3.3064236968	6.5030676688
9.15	3.3275642547	6.5254078828
9.20	3.3486653203	6.5476304672
9.25	3.3697266541	6.5697366459
9.30	3.3907480282	6.5917276288
9.35	3.4117292255	6.6136046112
9.40	3.4326700397	6.6353687750
9.45	3.4535702752	6.6570212881
9.50	3.4744297464	6.6785633047
9.55	3.4952482778	6.6999959656
9.60	3.5160257035	6.7213203983
9.65	3.5367618671	6.7425377170
9.70	3.5574566216	6.7636490230
9.75	3.5781098287	6.7846554045
9.80	3.5987213591	6.8055579371
9.85	3.6192910918	6.8263576835
9.90	3.6398189143	6.8470556943
9.95	3.6603047219	6.8676530074
10.00	3.6807484182	6.8881506487
10.05	3.7011499140	6.9085496318
10.10	3.7215091278	6.9288509585
10.15	3.7418259853	6.9490556188
10.20	3.7621004192	6.9691645910
10.25	3.7823323691	6.9891788417
10.30	3.8025217813	7.0090993262
10.35	3.8226686086	7.0289269886
10.40	3.8427728100	7.0486627617
10.45	3.8628343508	7.0683075672
10.50	3.8828532020	7.0878623162
10.55	3.9028293407	7.1073279086
10.60	3.9227627494	7.1267052339
10.65	3.9426534163	7.1459951711
10.70	3.9625013347	7.1651985886
10.75	3.9823065032	7.1843163447
10.80	4.0020689253	7.2033492873
10.85	4.0217886095	7.2222982546
10.90	4.0414655689	7.2411640745
10.95	4.0610998213	7.2599475653
11.00	4.0806913889	7.2786495355
11.05	4.1002402982	7.2972707841
11.10	4.1197465801	7.3158121007
11.15	4.1392102691	7.3342742652
11.20	4.1586314041	7.3526580487
11.25	4.1780100277	7.3709642129
11.30	4.1973461861	7.3891935105
11.35	4.2166399291	7.4073466853
11.40	4.2358913101	7.4254244725
11.45	4.2551003857	7.4434275983
11.50	4.2742672160	7.4613567804
11.55	4.2933918641	7.4792127281
11.60	4.3124743961	7.4969961423
11.65	4.3315148812	7.5147077155
11.70	4.3505133914	7.5323481321
11.75	4.3694700015	7.5499180684
11.80	4.3883847889	7.5674181929
11.85	4.4072578336	7.5848491659
11.90	4.4260892183	7.6022116401
11.95	4.4448790278	7.6195062605
12.00	4.4636273494	7.6367336645
12.05	4.4823342727	7.6538944819
12.10	4.5009998894	7.6709893353
12.15	4.5196242932	7.6880188399
12.20	4.5382075801	7.7049836035
12.25	4.5567498478	7.7218842271
12.30	4.5752511959	7.7387213043
12.35	4.5937117259	7.7554954220
12.40	4.6121315410	7.7722071601
12.45	4.6305107460	7.7888570919
12.50	4.6488494474	7.8054457837
12.55	4.6671477533	7.8219737955
12.60	4.6854057731	7.8384416805
12.65	4.7036236178	7.8548499857
12.70	4.7218013997	7.8711992515
12.75	4.7399392324	7.8874900123
12.80	4.7580372307	7.9037227959
12.85	4.7760955108	7.9198981243
12.90	4.7941141898	7.9360165134
12.95	4.8120933860	7.9520784730
13.00	4.8300332189	7.9680845071
13.05	4.8479338088	7.9840351138
13.10	4.8657952770	7.9999307854
13.15	4.8836177458	8.0157720089
13.20	4.9014013383	8.0315592651
13.25	4.9191461784	8.0472930297
13.30	4.9368523908	8.0629737729
13.35	4.9545201009	8.0786019593
13.40	4.9721494350	8.0941780482
13.45	4.9897405197	8.1097024940
13.50	5.0072934826	8.1251757453
13.55	5.0248084517	8.1405982462
13.60	5.0422855555	8.1559704353
13.65	5.0597249232	8.1712927463
13.70	5.0771266842	8.1865656082
13.75	5.0944909686	8.2017894447
13.80	5.1118179070	8.2169646751
13.85	5.1291076300	8.2320917138
13.90	5.1463602688	8.2471709704
13.95	5.1635759551	8.2622028500
14.00	5.1807548206	8.2771877531
14.05	5.1978969973	8.2921260757
14.10	5.2150026177	8.3070182094
14.15	5.2320718143	8.3218645412
14.20	5.2491047198	8.3366654539
14.25	5.2661014672	8.3514213261
14.30	5.2830621894	8.3661325321
14.35	5.2999870198	8.3807994419
14.40	5.3168760915	8.3954224215
14.45	5.3337295380	8.4100018328
14.50	5.3505474926	8.4245380336
14.55	5.3673300889	8.4390313779
14.60	5.3840774603	8.4534822157
14.65	5.4007897403	8.4678908930
14.70	5.4174670624	8.4822577522
14.75	5.4341095599	8.4965831317
14.80	5.4507173662	8.5108673663
14.85	5.4672906146	8.5251107873
14.90	5.4838294383	8.5393137219
14.95	5.5003339704	8.5534764942
15.00	5.5168043438	8.5675994244
15.05	5.5332406915	8.5816828294
15.10	5.5496431459	8.5957270226
15.15	5.5660118398	8.6097323140
15.20	5.5823469053	8.6236990101
15.25	5.5986484747	8.6376274144
15.30	5.6149166799	8.6515178268
15.35	5.6311516526	8.6653705440
15.40	5.6473535242	8.6791858596
15.45	5.6635224261	8.6929640641
15.50	5.6796584892	8.7067054447
15.55	5.6957618442	8.7204102857
15.60	5.7118326216	8.7340788681
15.65	5.7278709517	8.7477114701
15.70	5.7438769641	8.7613083669
15.75	5.7598507887	8.7748698308
15.80	5.7757925545	8.7883961311
15.85	5.7917023906	8.8018875342
15.90	5.8075804255	8.8153443040
15.95	5.8234267876	8.8287667012
16.00	5.8392416047	8.8421549840
16.05	5.8550250045	8.8555094078
16.10	5.8707771142	8.8688302253
16.15	5.8864980606	8.8821176866
16.20	5.9021879702	8.8953720391
16.25	5.9178469691	8.9085935278
16.30	5.9334751830	8.9217823948
16.35	5.9490727373	8.9349388800
16.40	5.9646397569	8.9480632207
16.45	5.9801763663	8.9611556517
16.50	5.9956826896	8.9742164054
16.55	6.0111588505	8.9872457117
16.60	6.0266049723	9.0002437984
16.65	6.0420211778	9.0132108906
16.70	6.0574075896	9.0261472114
16.75	6.0727643295	9.0390529813
16.80	6.0880915193	9.0519284188
16.85	6.1033892799	9.0647737401
16.90	6.1186577321	9.0775891592
16.95	6.1338969961	9.0903748878
17.00	6.1491071917	9.1031311355
17.05	6.1642884382	9.1158581100
17.10	6.1794408546	9.1285560166
17.15	6.1945645592	9.1412250587
17.20	6.2096596701	9.1538654375
17.25	6.2247263046	9.1664773523
17.30	6.2397645800	9.1790610005
17.35	6.2547746126	9.1916165772
17.40	6.2697565187	9.2041442758
17.45	6.2847104138	9.2166442878
17.50	6.2996364131	9.2291168026
17.55	6.3145346313	9.2415620079
17.60	6.3294051826	9.2539800893
17.65	6.3442481806	9.2663712310
17.70	6.3590637388	9.2787356149
17.75	6.3738519697	9.2910734213
17.80	6.3886129857	9.3033848288
17.85	6.4033468987	9.3156700142
17.90	6.4180538198	9.3279291526
17.95	6.4327338600	9.3401624172
18.00	6.4473871297	9.3523699797
18.05	6.4620137385	9.3645520102
18.10	6.4766137961	9.3767086769
18.15	6.4911874111	9.3888401465
18.20	6.5057346921	9.4009465841
18.25	6.5202557470	9.4130281533
18.30	6.5347506832	9.4250850158
18.35	6.5492196076	9.4371173322
18.40	6.5636626267	9.4491252611
18.45	6.5780798465	9.4611089599
18.50	6.5924713725	9.4730685845
18.55	6.6068373097	9.4850042890
18.60	6.6211777625	9.4969162264
18.65	6.6354928351	9.5088045480
18.70	6.6497826309	9.5206694038
18.75	6.6640472531	9.5325109424
18.80	6.6782868042	9.5443293109
18.85	6.6925013863	9.5561246550
18.90	6.7066911010	9.5678971191
18.95	6.7208560495	9.5796468463
19.00	6.7349963323	9.5913739782
19.05	6.7491120498	9.6030786552
19.10	6.7632033015	9.6147610164
19.15	6.7772701866	9.6264211996
19.20	6.7913128040	9.6380593413
19.25	6.8053312519	9.6496755766
19.30	6.8193256280	9.6612700396
19.35	6.8332960297	9.6728428630
19.40	6.8472425538	9.6843941784
19.45	6.8611652967	9.6959241160
19.50	6.8750643543	9.7074328050
19.55	6.8889398219	9.7189203734
19.60	6.9027917946	9.7303869479
19.65	6.9166203669	9.7418326542
19.70	6.9304256327	9.7532576167
19.75	6.9442076857	9.7646619589
19.80	6.9579666189	9.7760458029
19.85	6.9717025250	9.7874092699
19.90	6.9854154961	9.7987524799
19.95	6.9991056241	9.8100755521
20.00	7.0127730001	9.8213786041
